api/pglib_opf_case2000_tamu__api.m
%%%%%%%%%%%%%%%%%%%%%%%%%%%%%%%%%%%%%%%%%%%%%%%%%%%%%%%%%%%%%%%%%%%%%%%%%%%
%%%%                                                                  %%%%%
%%%%    IEEE PES Power Grid Library - Optimal Power Flow - v19.01     %%%%%
%%%%          (https://github.com/power-grid-lib/pglib-opf)           %%%%%
%%%%             Benchmark Group - Active Power Increase              %%%%%
%%%%                       04 - January - 2019                        %%%%%
%%%%                                                                  %%%%%
%%%%%%%%%%%%%%%%%%%%%%%%%%%%%%%%%%%%%%%%%%%%%%%%%%%%%%%%%%%%%%%%%%%%%%%%%%%
function mpc = pglib_opf_case2000_tamu__api
mpc.version = '2';
mpc.baseMVA = 100.0;

%% bus data
%	bus_i	type	Pd	Qd	Gs	Bs	area	Vm	Va	baseKV	zone	Vmax	Vmin
mpc.bus = [
	1001	 1	 24.38	 5.89	 0.0	 0.0	 1	    1.00000	    0.00000	 115.0	 9	    1.10000	    0.90000;
	1002	 1	 18.08	 4.37	 0.0	 0.0	 1	    1.00000	    0.00000	 115.0	 9	    1.10000	    0.90000;
	1003	 1	 0.0	 0.0	 0.0	 0.0	 1	    1.00000	    0.00000	 115.0	 9	    1.10000	    0.90000;
	1004	 2	 0.0	 0.0	 0.0	 0.0	 1	    1.00000	    0.00000	 230.0	 9	    1.10000	    0.90000;
	1005	 1	 0.0	 0.0	 0.0	 0.0	 1	    1.00000	    0.00000	 115.0	 9	    1.10000	    0.90000;
	1006	 2	 0.0	 0.0	 0.0	 0.0	 1	    1.00000	    0.00000	 13.8	 9	    1.10000	    0.90000;
	1007	 1	 8.22	 1.99	 0.0	 -0.82	 1	    1.00000	    0.00000	 115.0	 9	    1.10000	    0.90000;
	1008	 1	 0.0	 0.0	 0.0	 0.0	 1	    1.00000	    0.00000	 115.0	 9	    1.10000	    0.90000;
	1009	 2	 0.0	 0.0	 0.0	 0.0	 1	    1.00000	    0.00000	 13.8	 9	    1.10000	    0.90000;
	1010	 1	 0.0	 0.0	 0.0	 -3.07	 1	    1.00000	    0.00000	 115.0	 9	    1.10000	    0.90000;
	1011	 2	 0.0	 0.0	 0.0	 0.0	 1	    1.00000	    0.00000	 22.0	 9	    1.10000	    0.90000;
	1012	 1	 3.51	 0.85	 0.0	 9.5	 1	    1.00000	    0.00000	 115.0	 9	    1.10000	    0.90000;
	1013	 1	 34.29	 8.28	 0.0	 0.0	 1	    1.00000	    0.00000	 115.0	 9	    1.10000	    0.90000;
	1014	 1	 2.60	 0.63	 0.0	 0.0	 1	    1.00000	    0.00000	 115.0	 9	    1.10000	    0.90000;
	1015	 1	 8.81	 2.13	 0.0	 0.0	 1	    1.00000	    0.00000	 115.0	 9	    1.10000	    0.90000;
	1016	 1	 3.39	 0.82	 0.0	 30.0	 1	    1.00000	    0.00000	 115.0	 9	    1.10000	    0.90000;
	1017	 1	 21.52	 5.20	 0.0	 0.0	 1	    1.00000	    0.00000	 115.0	 9	    1.10000	    0.90000;
	1018	 1	 0.08	 0.02	 0.0	 0.0	 1	    1.00000	    0.00000	 115.0	 9	    1.10000	    0.90000;
	1019	 1	 72.48	 17.50	 0.0	 142.98	 1	    1.00000	    0.00000	 115.0	 9	    1.10000	    0.90000;
	1020	 1	 0.0	 0.0	 0.0	 67.23	 1	    1.00000	    0.00000	 115.0	 9	    1.10000	    0.90000;
	1021	 2	 0.0	 0.0	 0.0	 0.0	 1	    1.00000	    0.00000	 13.8	 9	    1.10000	    0.90000;
	1022	 1	 0.0	 0.0	 0.0	 0.0	 1	    1.00000	    0.00000	 115.0	 9	    1.10000	    0.90000;
	1023	 2	 0.0	 0.0	 0.0	 0.0	 1	    1.00000	    0.00000	 13.8	 9	    1.10000	    0.90000;
	1024	 1	 73.96	 17.86	 0.0	 0.0	 1	    1.00000	    0.00000	 115.0	 9	    1.10000	    0.90000;
	1025	 1	 0.0	 0.0	 0.0	 0.0	 1	    1.00000	    0.00000	 115.0	 9	    1.10000	    0.90000;
	1026	 2	 0.0	 0.0	 0.0	 0.0	 1	    1.00000	    0.00000	 13.8	 9	    1.10000	    0.90000;
	1027	 1	 118.74	 28.68	 0.0	 75.0	 1	    1.00000	    0.00000	 115.0	 9	    1.10000	    0.90000;
	1028	 1	 11.74	 2.84	 0.0	 0.0	 1	    1.00000	    0.00000	 115.0	 9	    1.10000	    0.90000;
	1029	 1	 97.59	 23.57	 0.0	 40.0	 1	    1.00000	    0.00000	 115.0	 9	    1.10000	    0.90000;
	1030	 1	 28.90	 6.98	 0.0	 0.0	 1	    1.00000	    0.00000	 115.0	 9	    1.10000	    0.90000;
	1031	 1	 10.85	 2.62	 0.0	 0.0	 1	    1.00000	    0.00000	 115.0	 9	    1.10000	    0.90000;
	1032	 1	 0.0	 0.0	 0.0	 0.0	 1	    1.00000	    0.00000	 115.0	 9	    1.10000	    0.90000;
	1033	 2	 0.0	 0.0	 0.0	 50.0	 1	    1.00000	    0.00000	 230.0	 9	    1.10000	    0.90000;
	1034	 1	 0.0	 0.0	 0.0	 0.0	 1	    1.00000	    0.00000	 115.0	 9	    1.10000	    0.90000;
	1035	 2	 0.0	 0.0	 0.0	 0.0	 1	    1.00000	    0.00000	 13.8	 9	    1.10000	    0.90000;
	1036	 1	 15.96	 3.85	 0.0	 0.0	 1	    1.00000	    0.00000	 115.0	 9	    1.10000	    0.90000;
	1037	 1	 119.95	 28.97	 0.0	 0.0	 1	    1.00000	    0.00000	 115.0	 9	    1.10000	    0.90000;
	1038	 1	 0.0	 0.0	 0.0	 0.0	 1	    1.00000	    0.00000	 115.0	 9	    1.10000	    0.90000;
	1039	 2	 0.0	 0.0	 0.0	 0.0	 1	    1.00000	    0.00000	 22.0	 9	    1.10000	    0.90000;
	1040	 1	 52.04	 12.57	 0.0	 0.0	 1	    1.00000	    0.00000	 115.0	 9	    1.10000	    0.90000;
	1041	 1	 0.0	 0.0	 0.0	 0.0	 1	    1.00000	    0.00000	 115.0	 9	    1.10000	    0.90000;
	1042	 2	 0.0	 0.0	 0.0	 0.0	 1	    1.00000	    0.00000	 13.8	 9	    1.10000	    0.90000;
	1043	 2	 0.0	 0.0	 0.0	 0.0	 1	    1.00000	    0.00000	 13.8	 9	    1.10000	    0.90000;
	1044	 1	 17.22	 4.16	 0.0	 0.0	 1	    1.00000	    0.00000	 115.0	 9	    1.10000	    0.90000;
	1045	 1	 115.63	 27.93	 0.0	 0.0	 1	    1.00000	    0.00000	 115.0	 9	    1.10000	    0.90000;
	1046	 1	 13.00	 3.14	 0.0	 12.0	 1	    1.00000	    0.00000	 115.0	 9	    1.10000	    0.90000;
	1047	 1	 0.0	 0.0	 0.0	 0.0	 1	    1.00000	    0.00000	 115.0	 9	    1.10000	    0.90000;
	1048	 2	 0.0	 0.0	 0.0	 0.0	 1	    1.00000	    0.00000	 18.0	 9	    1.10000	    0.90000;
	1049	 2	 0.0	 0.0	 0.0	 0.0	 1	    1.00000	    0.00000	 18.0	 9	    1.10000	    0.90000;
	1050	 2	 0.0	 0.0	 0.0	 0.0	 1	    1.00000	    0.00000	 18.0	 9	    1.10000	    0.90000;
	1051	 2	 0.0	 0.0	 0.0	 0.0	 1	    1.00000	    0.00000	 18.0	 9	    1.10000	    0.90000;
	1052	 2	 0.0	 0.0	 0.0	 0.0	 1	    1.00000	    0.00000	 18.0	 9	    1.10000	    0.90000;
	1053	 2	 0.0	 0.0	 0.0	 0.0	 1	    1.00000	    0.00000	 230.0	 9	    1.10000	    0.90000;
	1054	 1	 17.59	 4.25	 0.0	 0.0	 1	    1.00000	    0.00000	 115.0	 9	    1.10000	    0.90000;
	1055	 1	 4.67	 1.13	 0.0	 0.0	 1	    1.00000	    0.00000	 115.0	 9	    1.10000	    0.90000;
	1056	 1	 0.0	 0.0	 0.0	 59.97	 1	    1.00000	    0.00000	 115.0	 9	    1.10000	    0.90000;
	1057	 2	 0.0	 0.0	 0.0	 0.0	 1	    1.00000	    0.00000	 18.0	 9	    1.10000	    0.90000;
	1058	 1	 15.79	 3.81	 0.0	 0.0	 1	    1.00000	    0.00000	 115.0	 9	    1.10000	    0.90000;
	1059	 2	 0.0	 0.0	 0.0	 0.0	 1	    1.00000	    0.00000	 22.0	 9	    1.10000	    0.90000;
	1060	 2	 0.0	 0.0	 0.0	 0.0	 1	    1.00000	    0.00000	 22.0	 9	    1.10000	    0.90000;
	1061	 1	 0.0	 0.0	 0.0	 0.0	 1	    1.00000	    0.00000	 115.0	 9	    1.10000	    0.90000;
	1062	 2	 0.0	 0.0	 0.0	 0.0	 1	    1.00000	    0.00000	 13.8	 9	    1.10000	    0.90000;
	1063	 2	 0.0	 0.0	 0.0	 0.0	 1	    1.00000	    0.00000	 13.8	 9	    1.10000	    0.90000;
	1064	 1	 145.19	 35.07	 0.0	 0.0	 1	    1.00000	    0.00000	 115.0	 9	    1.10000	    0.90000;
	1065	 1	 0.0	 0.0	 0.0	 0.0	 1	    1.00000	    0.00000	 115.0	 9	    1.10000	    0.90000;
	1066	 2	 0.0	 0.0	 0.0	 0.0	 1	    1.00000	    0.00000	 13.8	 9	    1.10000	    0.90000;
	1067	 1	 119.14	 28.77	 0.0	 0.0	 1	    1.00000	    0.00000	 115.0	 9	    1.10000	    0.90000;
	1068	 1	 69.69	 16.83	 0.0	 0.0	 1	    1.00000	    0.00000	 115.0	 9	    1.10000	    0.90000;
	1069	 1	 0.0	 0.0	 0.0	 0.0	 1	    1.00000	    0.00000	 115.0	 9	    1.10000	    0.90000;
	1070	 2	 0.0	 0.0	 0.0	 0.0	 1	    1.00000	    0.00000	 13.8	 9	    1.10000	    0.90000;
	1071	 1	 107.30	 25.91	 0.0	 0.0	 1	    1.00000	    0.00000	 115.0	 9	    1.10000	    0.90000;
	1072	 2	 0.0	 0.0	 0.0	 0.0	 1	    1.00000	    0.00000	 18.0	 9	    1.10000	    0.90000;
	1073	 2	 0.0	 0.0	 0.0	 0.0	 1	    1.00000	    0.00000	 18.0	 9	    1.10000	    0.90000;
	1074	 2	 0.0	 0.0	 0.0	 0.0	 1	    1.00000	    0.00000	 18.0	 9	    1.10000	    0.90000;
	1075	 2	 0.0	 0.0	 0.0	 0.0	 1	    1.00000	    0.00000	 18.0	 9	    1.10000	    0.90000;
	1076	 2	 0.0	 0.0	 0.0	 0.0	 1	    1.00000	    0.00000	 18.0	 9	    1.10000	    0.90000;
	1077	 2	 0.0	 0.0	 0.0	 0.0	 1	    1.00000	    0.00000	 18.0	 9	    1.10000	    0.90000;
	1078	 2	 0.0	 0.0	 0.0	 0.0	 1	    1.00000	    0.00000	 18.0	 9	    1.10000	    0.90000;
	1079	 2	 0.0	 0.0	 0.0	 0.0	 1	    1.00000	    0.00000	 500.0	 9	    1.10000	    0.90000;
	1080	 2	 0.0	 0.0	 0.0	 0.0	 1	    1.00000	    0.00000	 18.0	 9	    1.10000	    0.90000;
	1081	 2	 0.0	 0.0	 0.0	 56.9	 1	    1.00000	    0.00000	 230.0	 9	    1.10000	    0.90000;
	1082	 2	 0.0	 0.0	 0.0	 0.0	 1	    1.00000	    0.00000	 115.0	 9	    1.10000	    0.90000;
	1083	 1	 46.87	 11.32	 0.0	 26.15	 1	    1.00000	    0.00000	 115.0	 9	    1.10000	    0.90000;
	1084	 2	 0.0	 0.0	 0.0	 0.0	 1	    1.00000	    0.00000	 115.0	 9	    1.10000	    0.90000;
	1085	 1	 24.99	 6.03	 0.0	 0.0	 1	    1.00000	    0.00000	 115.0	 9	    1.10000	    0.90000;
	1086	 1	 46.54	 11.24	 0.0	 30.0	 1	    1.00000	    0.00000	 115.0	 9	    1.10000	    0.90000;
	1087	 1	 1.07	 0.26	 0.0	 8.66	 1	    1.00000	    0.00000	 115.0	 9	    1.10000	    0.90000;
	1088	 2	 0.0	 0.0	 0.0	 0.0	 1	    1.00000	    0.00000	 115.0	 9	    1.10000	    0.90000;
	1089	 1	 47.63	 11.50	 0.0	 0.0	 1	    1.00000	    0.00000	 115.0	 9	    1.10000	    0.90000;
	1090	 2	 0.0	 0.0	 0.0	 0.0	 1	    1.00000	    0.00000	 115.0	 9	    1.10000	    0.90000;
	1091	 1	 13.63	 3.29	 0.0	 0.0	 1	    1.00000	    0.00000	 161.0	 9	    1.10000	    0.90000;
	2001	 1	 56.74	 13.70	 0.0	 0.0	 2	    1.00000	    0.00000	 161.0	 11	    1.10000	    0.90000;
	2002	 1	 0.0	 0.0	 0.0	 0.0	 2	    1.00000	    0.00000	 500.0	 11	    1.10000	    0.90000;
	2003	 1	 0.0	 0.0	 0.0	 0.0	 2	    1.00000	    0.00000	 161.0	 11	    1.10000	    0.90000;
	2004	 2	 0.0	 0.0	 0.0	 0.0	 2	    1.00000	    0.00000	 13.8	 11	    1.10000	    0.90000;
	2005	 2	 0.0	 0.0	 0.0	 0.0	 2	    1.00000	    0.00000	 13.8	 11	    1.10000	    0.90000;
	2006	 2	 0.0	 0.0	 0.0	 0.0	 2	    1.00000	    0.00000	 13.8	 11	    1.10000	    0.90000;
	2007	 1	 11.19	 2.70	 0.0	 0.0	 2	    1.00000	    0.00000	 161.0	 11	    1.10000	    0.90000;
	2008	 1	 9.46	 2.28	 0.0	 0.0	 2	    1.00000	    0.00000	 161.0	 10	    1.10000	    0.90000;
	2009	 1	 45.92	 11.09	 0.0	 113.65	 2	    1.00000	    0.00000	 161.0	 11	    1.10000	    0.90000;
	2010	 1	 66.65	 16.09	 0.0	 22.39	 2	    1.00000	    0.00000	 161.0	 10	    1.10000	    0.90000;
	2011	 1	 0.0	 0.0	 0.0	 0.0	 2	    1.00000	    0.00000	 500.0	 10	    1.10000	    0.90000;
	2012	 1	 0.0	 0.0	 0.0	 0.0	 2	    1.00000	    0.00000	 161.0	 10	    1.10000	    0.90000;
	2013	 2	 0.0	 0.0	 0.0	 0.0	 2	    1.00000	    0.00000	 18.0	 10	    1.10000	    0.90000;
	2014	 1	 29.83	 7.20	 0.0	 0.0	 2	    1.00000	    0.00000	 161.0	 10	    1.10000	    0.90000;
	2015	 1	 5.50	 1.33	 0.0	 0.0	 2	    1.00000	    0.00000	 161.0	 11	    1.10000	    0.90000;
	2016	 1	 81.27	 19.63	 0.0	 0.0	 2	    1.00000	    0.00000	 161.0	 11	    1.10000	    0.90000;
	2017	 1	 0.0	 0.0	 0.0	 -200.0	 2	    1.00000	    0.00000	 500.0	 10	    1.10000	    0.90000;
	2018	 1	 0.0	 0.0	 0.0	 0.0	 2	    1.00000	    0.00000	 161.0	 10	    1.10000	    0.90000;
	2019	 2	 0.0	 0.0	 0.0	 0.0	 2	    1.00000	    0.00000	 20.0	 10	    1.10000	    0.90000;
	2020	 1	 56.28	 13.59	 0.0	 0.0	 2	    1.00000	    0.00000	 161.0	 11	    1.10000	    0.90000;
	2021	 1	 0.0	 0.0	 0.0	 0.0	 2	    1.00000	    0.00000	 500.0	 11	    1.10000	    0.90000;
	2022	 1	 13.56	 3.28	 0.0	 0.0	 2	    1.00000	    0.00000	 161.0	 11	    1.10000	    0.90000;
	2023	 2	 0.0	 0.0	 0.0	 0.0	 2	    1.00000	    0.00000	 13.8	 11	    1.10000	    0.90000;
	2024	 2	 0.0	 0.0	 0.0	 0.0	 2	    1.00000	    0.00000	 13.8	 11	    1.10000	    0.90000;
	2025	 1	 46.48	 11.23	 0.0	 0.0	 2	    1.00000	    0.00000	 161.0	 11	    1.10000	    0.90000;
	2026	 1	 21.79	 5.26	 0.0	 0.0	 2	    1.00000	    0.00000	 161.0	 10	    1.10000	    0.90000;
	2027	 1	 4.16	 1.01	 0.0	 0.0	 2	    1.00000	    0.00000	 161.0	 11	    1.10000	    0.90000;
	2028	 1	 16.71	 4.03	 0.0	 0.0	 2	    1.00000	    0.00000	 161.0	 11	    1.10000	    0.90000;
	2029	 1	 3.75	 0.91	 0.0	 0.0	 2	    1.00000	    0.00000	 161.0	 10	    1.10000	    0.90000;
	2030	 1	 55.32	 13.36	 0.0	 0.0	 2	    1.00000	    0.00000	 161.0	 11	    1.10000	    0.90000;
	2031	 1	 6.77	 1.63	 0.0	 0.0	 2	    1.00000	    0.00000	 161.0	 10	    1.10000	    0.90000;
	2032	 1	 3.93	 0.95	 0.0	 0.0	 2	    1.00000	    0.00000	 161.0	 11	    1.10000	    0.90000;
	2033	 1	 15.92	 3.85	 0.0	 0.0	 2	    1.00000	    0.00000	 161.0	 11	    1.10000	    0.90000;
	2034	 1	 6.26	 1.51	 0.0	 0.0	 2	    1.00000	    0.00000	 161.0	 11	    1.10000	    0.90000;
	2035	 1	 5.49	 1.33	 0.0	 0.0	 2	    1.00000	    0.00000	 161.0	 10	    1.10000	    0.90000;
	2036	 1	 48.79	 11.78	 0.0	 0.0	 2	    1.00000	    0.00000	 161.0	 11	    1.10000	    0.90000;
	2037	 1	 4.11	 0.99	 0.0	 0.0	 2	    1.00000	    0.00000	 161.0	 11	    1.10000	    0.90000;
	2038	 1	 3.05	 0.74	 0.0	 0.0	 2	    1.00000	    0.00000	 161.0	 11	    1.10000	    0.90000;
	2039	 1	 6.52	 1.58	 0.0	 0.0	 2	    1.00000	    0.00000	 161.0	 11	    1.10000	    0.90000;
	2040	 1	 18.65	 4.51	 0.0	 0.0	 2	    1.00000	    0.00000	 161.0	 11	    1.10000	    0.90000;
	2041	 1	 0.0	 0.0	 0.0	 0.0	 2	    1.00000	    0.00000	 161.0	 10	    1.10000	    0.90000;
	2042	 2	 0.0	 0.0	 0.0	 0.0	 2	    1.00000	    0.00000	 18.0	 10	    1.10000	    0.90000;
	2043	 1	 4.97	 1.20	 0.0	 0.0	 2	    1.00000	    0.00000	 161.0	 11	    1.10000	    0.90000;
	2044	 1	 32.15	 7.76	 0.0	 0.0	 2	    1.00000	    0.00000	 161.0	 11	    1.10000	    0.90000;
	2045	 1	 26.53	 6.40	 0.0	 0.0	 2	    1.00000	    0.00000	 161.0	 11	    1.10000	    0.90000;
	2046	 1	 25.96	 6.27	 0.0	 0.0	 2	    1.00000	    0.00000	 161.0	 11	    1.10000	    0.90000;
	2047	 1	 17.55	 4.24	 0.0	 0.0	 2	    1.00000	    0.00000	 161.0	 11	    1.10000	    0.90000;
	2048	 1	 7.53	 1.82	 0.0	 0.0	 2	    1.00000	    0.00000	 161.0	 10	    1.10000	    0.90000;
	2049	 1	 13.57	 3.28	 0.0	 0.0	 2	    1.00000	    0.00000	 161.0	 10	    1.10000	    0.90000;
	2050	 1	 4.29	 1.04	 0.0	 0.0	 2	    1.00000	    0.00000	 161.0	 11	    1.10000	    0.90000;
	2051	 1	 20.94	 5.06	 0.0	 0.0	 2	    1.00000	    0.00000	 161.0	 11	    1.10000	    0.90000;
	2052	 1	 29.14	 7.04	 0.0	 0.0	 2	    1.00000	    0.00000	 161.0	 10	    1.10000	    0.90000;
	2053	 1	 34.18	 8.25	 0.0	 0.0	 2	    1.00000	    0.00000	 161.0	 11	    1.10000	    0.90000;
	2054	 1	 0.0	 0.0	 0.0	 0.0	 2	    1.00000	    0.00000	 500.0	 11	    1.10000	    0.90000;
	2055	 1	 58.21	 14.06	 0.0	 0.0	 2	    1.00000	    0.00000	 161.0	 11	    1.10000	    0.90000;
	2056	 2	 0.0	 0.0	 0.0	 0.0	 2	    1.00000	    0.00000	 18.0	 11	    1.10000	    0.90000;
	2057	 2	 0.0	 0.0	 0.0	 0.0	 2	    1.00000	    0.00000	 18.0	 11	    1.10000	    0.90000;
	2058	 1	 0.0	 0.0	 0.0	 0.0	 2	    1.00000	    0.00000	 161.0	 10	    1.10000	    0.90000;
	2059	 2	 0.0	 0.0	 0.0	 0.0	 2	    1.00000	    0.00000	 13.8	 10	    1.10000	    0.90000;
	2060	 1	 4.46	 1.08	 0.0	 0.0	 2	    1.00000	    0.00000	 161.0	 11	    1.10000	    0.90000;
	2061	 1	 0.0	 0.0	 0.0	 0.0	 2	    1.00000	    0.00000	 161.0	 10	    1.10000	    0.90000;
	2062	 2	 0.0	 0.0	 0.0	 0.0	 2	    1.00000	    0.00000	 18.0	 10	    1.10000	    0.90000;
	2063	 1	 76.99	 18.59	 0.0	 40.0	 2	    1.00000	    0.00000	 161.0	 11	    1.10000	    0.90000;
	2064	 1	 11.79	 2.85	 0.0	 0.0	 2	    1.00000	    0.00000	 161.0	 11	    1.10000	    0.90000;
	2065	 1	 91.93	 22.20	 0.0	 94.98	 2	    1.00000	    0.00000	 161.0	 11	    1.10000	    0.90000;
	2066	 1	 8.34	 2.02	 0.0	 0.0	 2	    1.00000	    0.00000	 161.0	 10	    1.10000	    0.90000;
	2067	 1	 63.32	 15.29	 0.0	 0.0	 2	    1.00000	    0.00000	 161.0	 11	    1.10000	    0.90000;
	2068	 1	 6.76	 1.63	 0.0	 0.0	 2	    1.00000	    0.00000	 161.0	 11	    1.10000	    0.90000;
	2069	 1	 25.72	 6.21	 0.0	 110.69	 2	    1.00000	    0.00000	 161.0	 11	    1.10000	    0.90000;
	2070	 1	 0.0	 0.0	 0.0	 0.0	 2	    1.00000	    0.00000	 161.0	 11	    1.10000	    0.90000;
	2071	 2	 0.0	 0.0	 0.0	 0.0	 2	    1.00000	    0.00000	 18.0	 11	    1.10000	    0.90000;
	2072	 1	 11.39	 2.75	 0.0	 0.0	 2	    1.00000	    0.00000	 161.0	 11	    1.10000	    0.90000;
	2073	 1	 0.0	 0.0	 0.0	 0.0	 2	    1.00000	    0.00000	 161.0	 10	    1.10000	    0.90000;
	2074	 1	 0.0	 0.0	 0.0	 0.0	 2	    1.00000	    0.00000	 115.0	 10	    1.10000	    0.90000;
	2075	 1	 0.0	 0.0	 0.0	 0.0	 2	    1.00000	    0.00000	 115.0	 10	    1.10000	    0.90000;
	2076	 2	 0.0	 0.0	 0.0	 0.0	 2	    1.00000	    0.00000	 24.0	 10	    1.10000	    0.90000;
	2077	 1	 0.0	 0.0	 0.0	 0.0	 2	    1.00000	    0.00000	 161.0	 11	    1.10000	    0.90000;
	2078	 2	 0.0	 0.0	 0.0	 0.0	 2	    1.00000	    0.00000	 13.8	 11	    1.10000	    0.90000;
	2079	 1	 5.26	 1.27	 0.0	 0.0	 2	    1.00000	    0.00000	 161.0	 10	    1.10000	    0.90000;
	2080	 1	 19.86	 4.80	 0.0	 0.0	 2	    1.00000	    0.00000	 161.0	 11	    1.10000	    0.90000;
	2081	 1	 5.23	 1.26	 0.0	 0.0	 2	    1.00000	    0.00000	 161.0	 11	    1.10000	    0.90000;
	2082	 1	 69.25	 16.73	 0.0	 0.0	 2	    1.00000	    0.00000	 161.0	 11	    1.10000	    0.90000;
	2083	 2	 0.0	 0.0	 0.0	 0.0	 2	    1.00000	    0.00000	 20.0	 11	    1.10000	    0.90000;
	2084	 2	 0.0	 0.0	 0.0	 0.0	 2	    1.00000	    0.00000	 20.0	 11	    1.10000	    0.90000;
	2085	 2	 0.0	 0.0	 0.0	 0.0	 2	    1.00000	    0.00000	 20.0	 11	    1.10000	    0.90000;
	2086	 1	 2.57	 0.62	 0.0	 0.0	 2	    1.00000	    0.00000	 161.0	 11	    1.10000	    0.90000;
	2087	 1	 9.27	 2.24	 0.0	 0.0	 2	    1.00000	    0.00000	 161.0	 10	    1.10000	    0.90000;
	2088	 1	 0.0	 0.0	 0.0	 0.0	 2	    1.00000	    0.00000	 161.0	 11	    1.10000	    0.90000;
	2089	 2	 0.0	 0.0	 0.0	 0.0	 2	    1.00000	    0.00000	 24.0	 11	    1.10000	    0.90000;
	2090	 1	 2.84	 0.69	 0.0	 0.0	 2	    1.00000	    0.00000	 161.0	 11	    1.10000	    0.90000;
	2091	 1	 20.00	 4.83	 0.0	 0.0	 2	    1.00000	    0.00000	 161.0	 10	    1.10000	    0.90000;
	2092	 1	 28.29	 6.83	 0.0	 0.0	 2	    1.00000	    0.00000	 161.0	 11	    1.10000	    0.90000;
	2093	 1	 0.0	 0.0	 0.0	 0.0	 2	    1.00000	    0.00000	 161.0	 10	    1.10000	    0.90000;
	2094	 2	 0.0	 0.0	 0.0	 0.0	 2	    1.00000	    0.00000	 13.8	 10	    1.10000	    0.90000;
	2095	 2	 0.0	 0.0	 0.0	 0.0	 2	    1.00000	    0.00000	 13.8	 10	    1.10000	    0.90000;
	2096	 1	 0.0	 0.0	 0.0	 -122.33	 2	    1.00000	    0.00000	 500.0	 10	    1.10000	    0.90000;
	2097	 1	 0.0	 0.0	 0.0	 0.0	 2	    1.00000	    0.00000	 230.0	 10	    1.10000	    0.90000;
	2098	 1	 0.0	 0.0	 0.0	 0.0	 2	    1.00000	    0.00000	 161.0	 10	    1.10000	    0.90000;
	2099	 2	 0.0	 0.0	 0.0	 0.0	 2	    1.00000	    0.00000	 18.0	 10	    1.10000	    0.90000;
	2100	 2	 0.0	 0.0	 0.0	 0.0	 2	    1.00000	    0.00000	 18.0	 10	    1.10000	    0.90000;
	2101	 1	 0.0	 0.0	 0.0	 0.0	 2	    1.00000	    0.00000	 500.0	 11	    1.10000	    0.90000;
	2102	 1	 0.0	 0.0	 0.0	 0.0	 2	    1.00000	    0.00000	 161.0	 11	    1.10000	    0.90000;
	2103	 2	 0.0	 0.0	 0.0	 0.0	 2	    1.00000	    0.00000	 20.0	 11	    1.10000	    0.90000;
	2104	 2	 0.0	 0.0	 0.0	 0.0	 2	    1.00000	    0.00000	 20.0	 11	    1.10000	    0.90000;
	2105	 2	 0.0	 0.0	 0.0	 0.0	 2	    1.00000	    0.00000	 20.0	 11	    1.10000	    0.90000;
	2106	 1	 16.89	 4.08	 0.0	 0.0	 2	    1.00000	    0.00000	 161.0	 11	    1.10000	    0.90000;
	2107	 1	 86.99	 21.01	 0.0	 0.0	 2	    1.00000	    0.00000	 161.0	 11	    1.10000	    0.90000;
	2108	 1	 2.51	 0.61	 0.0	 0.0	 2	    1.00000	    0.00000	 161.0	 10	    1.10000	    0.90000;
	2109	 1	 39.67	 9.58	 0.0	 0.0	 2	    1.00000	    0.00000	 161.0	 11	    1.10000	    0.90000;
...
];

%% generator data
%	bus	Pg	Qg	Qmax	Qmin	Vg	mBase	status	Pmax	Pmin	Pc1	Pc2	Qc1min	Qc1max	Qc2min	Qc2max	ramp_agc	ramp_10	ramp_30	ramp_q	apf
mpc.gen = [
	1004	 173.5625	 0.0	 134.0	 -134.0	 1.0	 253.2	 1	 268	 79.125	 0.0	 0.0	 0.0	 0.0	 0.0	 0.0	 0.0	 0.0	 0.0	 0.0	 211.0; % NG
	1006	 55.4325	 0.0	 49.0	 -49.0	 1.0	 41.16	 1	 98	 12.865	 0.0	 0.0	 0.0	 0.0	 0.0	 0.0	 0.0	 0.0	 0.0	 0.0	 34.3; % NG
	1009	 68.9675	 0.0	 54.0	 -54.0	 1.0	 99.0	 1	 107	 30.935	 0.0	 0.0	 0.0	 0.0	 0.0	 0.0	 0.0	 0.0	 0.0	 0.0	 82.5; % NG
	1011	 24.25	 0.0	 24.0	 -24.0	 1.0	 12.0	 1	 47	 1.5	 0.0	 0.0	 0.0	 0.0	 0.0	 0.0	 0.0	 0.0	 0.0	 0.0	 10.0; % PEL
	1021	 175.9075	 0.0	 139.0	 -139.0	 1.0	 239.4	 1	 277	 74.815	 0.0	 0.0	 0.0	 0.0	 0.0	 0.0	 0.0	 0.0	 0.0	 0.0	 199.5; % NG
	1023	 114.25	 0.0	 81.0	 -81.0	 1.0	 216.0	 1	 161	 67.5	 0.0	 0.0	 0.0	 0.0	 0.0	 0.0	 0.0	 0.0	 0.0	 0.0	 180.0; % NG
	1026	 101.2875	 0.0	 78.0	 -78.0	 1.0	 149.04	 1	 156	 46.575	 0.0	 0.0	 0.0	 0.0	 0.0	 0.0	 0.0	 0.0	 0.0	 0.0	 124.2; % NG
	1033	 184.125	 0.0	 170.4	 -170.4	 1.0	 333.6	 1	 264	 104.25	 0.0	 0.0	 0.0	 0.0	 0.0	 0.0	 0.0	 0.0	 0.0	 0.0	 278.0; % NG
	1035	 67.875	 0.0	 51.0	 -51.0	 1.0	 108.0	 1	 102	 33.75	 0.0	 0.0	 0.0	 0.0	 0.0	 0.0	 0.0	 0.0	 0.0	 0.0	 90.0; % NG
	1039	 240.1575	 0.0	 213.0	 -213.0	 1.0	 177.0	 1	 425	 55.315	 0.0	 0.0	 0.0	 0.0	 0.0	 0.0	 0.0	 0.0	 0.0	 0.0	 147.5; % NG
	1042	 156.6425	 0.0	 148.0	 -148.0	 1.0	 146.28	 0	 295	 18.285	 0.0	 0.0	 0.0	 0.0	 0.0	 0.0	 0.0	 0.0	 0.0	 0.0	 121.9; % NG
	1043	 38.525	 0.0	 28.0	 -28.0	 1.0	 70.56	 1	 55	 22.05	 0.0	 0.0	 0.0	 0.0	 0.0	 0.0	 0.0	 0.0	 0.0	 0.0	 58.8; % NG
	1048	 197.89	 0.0	 174.0	 -174.0	 1.0	 390.24	 0	 347	 48.78	 0.0	 0.0	 0.0	 0.0	 0.0	 0.0	 0.0	 0.0	 0.0	 0.0	 325.2; % NG
	1049	 327.89	 0.0	 304.0	 -304.0	 1.0	 390.24	 0	 607	 48.78	 0.0	 0.0	 0.0	 0.0	 0.0	 0.0	 0.0	 0.0	 0.0	 0.0	 325.2; % COW
	1050	 71.705	 0.0	 65.0	 -65.0	 1.0	 107.28	 1	 130	 13.41	 0.0	 0.0	 0.0	 0.0	 0.0	 0.0	 0.0	 0.0	 0.0	 0.0	 89.4; % NG
	1051	 29.705	 11.25	 45.5	 -23.0	 1.0	 107.28	 1	 46	 13.41	 0.0	 0.0	 0.0	 0.0	 0.0	 0.0	 0.0	 0.0	 0.0	 0.0	 89.4; % NG
	1052	 75.705	 0.0	 69.0	 -69.0	 1.0	 107.28	 1	 138	 13.41	 0.0	 0.0	 0.0	 0.0	 0.0	 0.0	 0.0	 0.0	 0.0	 0.0	 89.4; % NG
	1053	 174.41	 0.0	 161.0	 -161.0	 1.0	 214.56	 0	 322	 26.82	 0.0	 0.0	 0.0	 0.0	 0.0	 0.0	 0.0	 0.0	 0.0	 0.0	 178.8; % NG
	1057	 62.0	 0.0	 53.0	 -53.0	 1.0	 144.0	 0	 106	 18.0	 0.0	 0.0	 0.0	 0.0	 0.0	 0.0	 0.0	 0.0	 0.0	 0.0	 120.0; % NG
	1059	 7.92	 0.0	 8.0	 -8.0	 1.0	 6.72	 0	 15	 0.84	 0.0	 0.0	 0.0	 0.0	 0.0	 0.0	 0.0	 0.0	 0.0	 0.0	 5.6; % PEL
	1060	 1.15	 0.01	 1.02	 -1.0	 1.0	 2.4	 0	 2	 0.3	 0.0	 0.0	 0.0	 0.0	 0.0	 0.0	 0.0	 0.0	 0.0	 0.0	 2.0; % PEL
	1062	 0.6125	 0.0	 1.0	 -1.0	 1.0	 1.8	 0	 1	 0.225	 0.0	 0.0	 0.0	 0.0	 0.0	 0.0	 0.0	 0.0	 0.0	 0.0	 1.5; % PEL
	1063	 161.75	 0.0	 145.0	 -145.0	 1.0	 276.0	 0	 289	 34.5	 0.0	 0.0	 0.0	 0.0	 0.0	 0.0	 0.0	 0.0	 0.0	 0.0	 230.0; % NG
	1066	 305.72	 0.0	 279.0	 -279.0	 1.0	 171.0	 1	 558	 53.44	 0.0	 0.0	 0.0	 0.0	 0.0	 0.0	 0.0	 0.0	 0.0	 0.0	 142.5; % COW
	1070	 309.595	 0.0	 280.0	 -280.0	 1.0	 192.6	 1	 559	 60.19	 0.0	 0.0	 0.0	 0.0	 0.0	 0.0	 0.0	 0.0	 0.0	 0.0	 160.5; % COW
	1072	 76.41	 17.9	 97.8	 -62.0	 1.0	 230.56	 1	 124	 28.82	 0.0	 0.0	 0.0	 0.0	 0.0	 0.0	 0.0	 0.0	 0.0	 0.0	 192.13; % NG
	1073	 68.41	 21.9	 97.8	 -54.0	 1.0	 230.56	 1	 108	 28.82	 0.0	 0.0	 0.0	 0.0	 0.0	 0.0	 0.0	 0.0	 0.0	 0.0	 192.13; % NG
	1074	 69.91	 20.9	 97.8	 -56.0	 1.0	 230.56	 1	 111	 28.82	 0.0	 0.0	 0.0	 0.0	 0.0	 0.0	 0.0	 0.0	 0.0	 0.0	 192.13; % NG
	1075	 92.41	 9.9	 97.8	 -78.0	 1.0	 230.56	 1	 156	 28.82	 0.0	 0.0	 0.0	 0.0	 0.0	 0.0	 0.0	 0.0	 0.0	 0.0	 192.13; % COW
	1076	 81.91	 14.9	 97.8	 -68.0	 1.0	 230.56	 0	 135	 28.82	 0.0	 0.0	 0.0	 0.0	 0.0	 0.0	 0.0	 0.0	 0.0	 0.0	 192.13; % COW
	1077	 201.91	 0.0	 188.0	 -188.0	 1.0	 230.56	 0	 375	 28.82	 0.0	 0.0	 0.0	 0.0	 0.0	 0.0	 0.0	 0.0	 0.0	 0.0	 192.13; % NG
	1078	 89.6625	 0.0	 83.0	 -83.0	 1.0	 114.6	 1	 165	 14.325	 0.0	 0.0	 0.0	 0.0	 0.0	 0.0	 0.0	 0.0	 0.0	 0.0	 95.5; % NG
	1079	 189.1625	 0.0	 477.6	 -477.6	 1.0	 114.6	 1	 364	 14.325	 0.0	 0.0	 0.0	 0.0	 0.0	 0.0	 0.0	 0.0	 0.0	 0.0	 95.5; % NG
	1080	 56.6625	 0.0	 50.0	 -50.0	 1.0	 114.6	 1	 99	 14.325	 0.0	 0.0	 0.0	 0.0	 0.0	 0.0	 0.0	 0.0	 0.0	 0.0	 95.5; % NG
	1081	 124.4875	 21.415	 145.83	 -103.0	 1.0	 343.8	 0	 206	 42.975	 0.0	 0.0	 0.0	 0.0	 0.0	 0.0	 0.0	 0.0	 0.0	 0.0	 286.5; % NG
	1082	 117.125	 0.0	 89.0	 -89.0	 1.0	 180.0	 1	 178	 56.25	 0.0	 0.0	 0.0	 0.0	 0.0	 0.0	 0.0	 0.0	 0.0	 0.0	 150.0; % NG
	1084	 95.155	 0.0	 74.0	 -74.0	 1.0	 138.6	 1	 147	 43.31	 0.0	 0.0	 0.0	 0.0	 0.0	 0.0	 0.0	 0.0	 0.0	 0.0	 115.5; % NG
	1088	 75.5625	 0.0	 62.0	 -62.0	 1.0	 90.0	 1	 123	 28.125	 0.0	 0.0	 0.0	 0.0	 0.0	 0.0	 0.0	 0.0	 0.0	 0.0	 75.0; % NG
	1090	 226.0925	 0.0	 198.0	 -198.0	 1.0	 183.0	 1	 395	 57.185	 0.0	 0.0	 0.0	 0.0	 0.0	 0.0	 0.0	 0.0	 0.0	 0.0	 152.5; % NG
	1090	 59.25	 0.0	 53.0	 -53.0	 1.0	 43.2	 1	 105	 13.5	 0.0	 0.0	 0.0	 0.0	 0.0	 0.0	 0.0	 0.0	 0.0	 0.0	 36.0; % PEL
	2004	 302.385	 0.0	 273.0	 -273.0	 1.0	 470.16	 0	 546	 58.77	 0.0	 0.0	 0.0	 0.0	 0.0	 0.0	 0.0	 0.0	 0.0	 0.0	 391.8; % COW
	2005	 201.385	 13.715	 199.43	 -172.0	 1.0	 470.16	 0	 344	 58.77	 0.0	 0.0	 0.0	 0.0	 0.0	 0.0	 0.0	 0.0	 0.0	 0.0	 391.8; % NG
	2006	 170.885	 28.715	 199.43	 -142.0	 1.0	 470.16	 0	 283	 58.77	 0.0	 0.0	 0.0	 0.0	 0.0	 0.0	 0.0	 0.0	 0.0	 0.0	 391.8; % NG
	2013	 176.6125	 0.0	 139.0	 -139.0	 1.0	 240.72	 1	 278	 75.225	 0.0	 0.0	 0.0	 0.0	 0.0	 0.0	 0.0	 0.0	 0.0	 0.0	 200.6; % COW
	2019	 129.85	 0.0	 114.0	 -114.0	 1.0	 261.6	 0	 227	 32.7	 0.0	 0.0	 0.0	 0.0	 0.0	 0.0	 0.0	 0.0	 0.0	 0.0	 218.0; % NG
	2023	 31.25	 6.21	 42.42	 -30.0	 1.0	 100.0	 1	 50	 12.5	 0.0	 0.0	 0.0	 0.0	 0.0	 0.0	 0.0	 0.0	 0.0	 0.0	 83.33; % NG
	2024	 87.5	 4.915	 84.83	 -75.0	 1.0	 200.0	 1	 150	 25.0	 0.0	 0.0	 0.0	 0.0	 0.0	 0.0	 0.0	 0.0	 0.0	 0.0	 166.67; % NG
	2042	 94.925	 0.0	 80.0	 -80.0	 1.0	 95.52	 1	 160	 29.85	 0.0	 0.0	 0.0	 0.0	 0.0	 0.0	 0.0	 0.0	 0.0	 0.0	 79.6; % PEL
	2056	 9.95	 0.0	 10.0	 -10.0	 1.0	 7.2	 0	 19	 0.9	 0.0	 0.0	 0.0	 0.0	 0.0	 0.0	 0.0	 0.0	 0.0	 0.0	 6.0; % NG
	2057	 490.5	 0.0	 437.0	 -437.0	 1.0	 864.0	 1	 873	 108.0	 0.0	 0.0	 0.0	 0.0	 0.0	 0.0	 0.0	 0.0	 0.0	 0.0	 720.0; % COW
	2059	 82.5	 0.0	 68.0	 -68.0	 1.0	 96.0	 1	 135	 30.0	 0.0	 0.0	 0.0	 0.0	 0.0	 0.0	 0.0	 0.0	 0.0	 0.0	 80.0; % NG
	2062	 218.8875	 0.0	 194.0	 -194.0	 1.0	 162.48	 1	 387	 50.775	 0.0	 0.0	 0.0	 0.0	 0.0	 0.0	 0.0	 0.0	 0.0	 0.0	 135.4; % NG
	2071	 130.125	 0.0	 102.0	 -102.0	 1.0	 180.0	 1	 204	 56.25	 0.0	 0.0	 0.0	 0.0	 0.0	 0.0	 0.0	 0.0	 0.0	 0.0	 150.0; % NG
	2076	 44.625	 0.0	 39.0	 -39.0	 1.0	 36.0	 1	 78	 11.25	 0.0	 0.0	 0.0	 0.0	 0.0	 0.0	 0.0	 0.0	 0.0	 0.0	 30.0; % NG
	2078	 112.595	 0.0	 92.0	 -92.0	 1.0	 135.0	 1	 183	 42.19	 0.0	 0.0	 0.0	 0.0	 0.0	 0.0	 0.0	 0.0	 0.0	 0.0	 112.5; % NG
	2083	 17.5	 0.0	 16.0	 -16.0	 1.0	 24.0	 1	 32	 3.0	 0.0	 0.0	 0.0	 0.0	 0.0	 0.0	 0.0	 0.0	 0.0	 0.0	 20.0; % PEL
	2084	 8.0	 1.59	 10.18	 -7.0	 1.0	 24.0	 0	 13	 3.0	 0.0	 0.0	 0.0	 0.0	 0.0	 0.0	 0.0	 0.0	 0.0	 0.0	 20.0; % NG
	2085	 32.0	 0.0	 29.0	 -29.0	 1.0	 48.0	 0	 58	 6.0	 0.0	 0.0	 0.0	 0.0	 0.0	 0.0	 0.0	 0.0	 0.0	 0.0	 40.0; % NG
	2089	 54.175	 0.0	 42.0	 -42.0	 1.0	 81.12	 1	 83	 25.35	 0.0	 0.0	 0.0	 0.0	 0.0	 0.0	 0.0	 0.0	 0.0	 0.0	 67.6; % NG
	2094	 4.25	 0.0	 4.0	 -4.0	 1.0	 12.0	 0	 7	 1.5	 0.0	 0.0	 0.0	 0.0	 0.0	 0.0	 0.0	 0.0	 0.0	 0.0	 10.0; % NG
	2095	 105.9625	 0.0	 100.0	 -100.0	 1.0	 95.4	 0	 200	 11.925	 0.0	 0.0	 0.0	 0.0	 0.0	 0.0	 0.0	 0.0	 0.0	 0.0	 79.5; % COW
	2099	 24.375	 0.0	 34.8	 -34.8	 1.0	 12.0	 1	 45	 3.75	 0.0	 0.0	 0.0	 0.0	 0.0	 0.0	 0.0	 0.0	 0.0	 0.0	 10.0; % COW
	2100	 99.625	 0.0	 72.0	 -72.0	 1.0	 180.0	 1	 143	 56.25	 0.0	 0.0	 0.0	 0.0	 0.0	 0.0	 0.0	 0.0	 0.0	 0.0	 150.0; % NG
	2103	 187.08	 0.0	 167.0	 -167.0	 1.0	 321.28	 0	 334	 40.16	 0.0	 0.0	 0.0	 0.0	 0.0	 0.0	 0.0	 0.0	 0.0	 0.0	 267.73; % NG
	2104	 133.58	 11.14	 136.28	 -114.0	 1.0	 321.28	 0	 227	 40.16	 0.0	 0.0	 0.0	 0.0	 0.0	 0.0	 0.0	 0.0	 0.0	 0.0	 267.73; % NG
	2105	 132.08	 12.14	 136.28	 -112.0	 1.0	 321.28	 0	 224	 40.16	 0.0	 0.0	 0.0	 0.0	 0.0	 0.0	 0.0	 0.0	 0.0	 0.0	 267.73; % NG
	2115	 51.8525	 27.81	 94.02	 -38.4	 1.0	 221.66	 1	 76	 27.705	 0.0	 0.0	 0.0	 0.0	 0.0	 0.0	 0.0	 0.0	 0.0	 0.0	 184.72; % NG
	2116	 47.3525	 30.01	 94.02	 -34.0	 1.0	 221.66	 1	 67	 27.705	 0.0	 0.0	 0.0	 0.0	 0.0	 0.0	 0.0	 0.0	 0.0	 0.0	 184.72; % NG
	2117	 92.8525	 7.51	 94.02	 -79.0	 1.0	 221.66	 1	 158	 27.705	 0.0	 0.0	 0.0	 0.0	 0.0	 0.0	 0.0	 0.0	 0.0	 0.0	 184.72; % NG
	2118	 102.8525	 2.51	 94.02	 -89.0	 1.0	 221.66	 1	 178	 27.705	 0.0	 0.0	 0.0	 0.0	 0.0	 0.0	 0.0	 0.0	 0.0	 0.0	 184.72; % NG
	2119	 59.3525	 24.01	 94.02	 -46.0	 1.0	 221.66	 1	 91	 27.705	 0.0	 0.0	 0.0	 0.0	 0.0	 0.0	 0.0	 0.0	 0.0	 0.0	 184.72; % NG
	2120	 81.8525	 13.01	 94.02	 -68.0	 1.0	 221.66	 1	 136	 27.705	 0.0	 0.0	 0.0	 0.0	 0.0	 0.0	 0.0	 0.0	 0.0	 0.0	 184.72; % NG
	2123	 112.07	 0.0	 118.8	 -118.8	 1.0	 218.04	 1	 156	 68.14	 0.0	 0.0	 0.0	 0.0	 0.0	 0.0	 0.0	 0.0	 0.0	 0.0	 181.7; % NG
	2127	 185.1125	 0.0	 432.0	 -432.0	 1.0	 346.32	 1	 262	 108.225	 0.0	 0.0	 0.0	 0.0	 0.0	 0.0	 0.0	 0.0	 0.0	 0.0	 288.6; % COW
	3004	 47.5325	 0.0	 41.0	 -41.0	 1.0	 45.0	 1	 81	 14.065	 0.0	 0.0	 0.0	 0.0	 0.0	 0.0	 0.0	 0.0	 0.0	 0.0	 37.5; % PEL
	3017	 167.7825	 0.0	 136.0	 -136.0	 1.0	 203.4	 1	 272	 63.565	 0.0	 0.0	 0.0	 0.0	 0.0	 0.0	 0.0	 0.0	 0.0	 0.0	 169.5; % NG
	3020	 102.125	 0.0	 74.0	 -74.0	 1.0	 180.0	 1	 148	 56.25	 0.0	 0.0	 0.0	 0.0	 0.0	 0.0	 0.0	 0.0	 0.0	 0.0	 150.0; % NG
	3028	 283.5	 0.0	 246.0	 -246.0	 1.0	 240.0	 1	 492	 75.0	 0.0	 0.0	 0.0	 0.0	 0.0	 0.0	 0.0	 0.0	 0.0	 0.0	 200.0; % NG
	3034	 158.9675	 0.0	 135.0	 -135.0	 1.0	 156.6	 1	 269	 48.935	 0.0	 0.0	 0.0	 0.0	 0.0	 0.0	 0.0	 0.0	 0.0	 0.0	 130.5; % NG
	3039	 127.6875	 0.0	 89.0	 -89.0	 1.0	 250.8	 1	 177	 78.375	 0.0	 0.0	 0.0	 0.0	 0.0	 0.0	 0.0	 0.0	 0.0	 0.0	 209.0; % NG
	3043	 0.195	 0.174	 0.66	 -0.312	 1.0	 1.56	 0	 0	 0.39	 0.0	 0.0	 0.0	 0.0	 0.0	 0.0	 0.0	 0.0	 0.0	 0.0	 1.3; % PEL
	3044	 122.705	 0.0	 116.0	 -116.0	 1.0	 107.28	 0	 232	 13.41	 0.0	 0.0	 0.0	 0.0	 0.0	 0.0	 0.0	 0.0	 0.0	 0.0	 89.4; % NG
	3045	 419.025	 0.0	 386.0	 -386.0	 1.0	 536.4	 0	 771	 67.05	 0.0	 0.0	 0.0	 0.0	 0.0	 0.0	 0.0	 0.0	 0.0	 0.0	 447.0; % COW
	3048	 368.1875	 0.0	 1549.2	 -1549.2	 1.0	 289.2	 1	 646	 90.375	 0.0	 0.0	 0.0	 0.0	 0.0	 0.0	 0.0	 0.0	 0.0	 0.0	 241.0; % NG
	3055	 153.97	 0.0	 108.0	 -108.0	 1.0	 294.2	 1	 216	 91.94	 0.0	 0.0	 0.0	 0.0	 0.0	 0.0	 0.0	 0.0	 0.0	 0.0	 245.17; % NG
	3056	 163.47	 0.0	 118.0	 -118.0	 1.0	 294.2	 1	 235	 91.94	 0.0	 0.0	 0.0	 0.0	 0.0	 0.0	 0.0	 0.0	 0.0	 0.0	 245.17; % NG
	3057	 161.47	 0.0	 116.0	 -116.0	 1.0	 294.2	 1	 231	 91.94	 0.0	 0.0	 0.0	 0.0	 0.0	 0.0	 0.0	 0.0	 0.0	 0.0	 245.17; % NG
	3060	 142.055	 0.0	 111.0	 -111.0	 1.0	 198.75	 1	 222	 62.11	 0.0	 0.0	 0.0	 0.0	 0.0	 0.0	 0.0	 0.0	 0.0	 0.0	 165.63; % NG
	3061	 230.055	 0.0	 199.0	 -199.0	 1.0	 198.75	 1	 398	 62.11	 0.0	 0.0	 0.0	 0.0	 0.0	 0.0	 0.0	 0.0	 0.0	 0.0	 165.63; % NG
	3062	 257.055	 0.0	 226.0	 -226.0	 1.0	 198.75	 1	 452	 62.11	 0.0	 0.0	 0.0	 0.0	 0.0	 0.0	 0.0	 0.0	 0.0	 0.0	 165.63; % NG
	3063	 139.055	 0.0	 108.0	 -108.0	 1.0	 198.75	 1	 216	 62.11	 0.0	 0.0	 0.0	 0.0	 0.0	 0.0	 0.0	 0.0	 0.0	 0.0	 165.63; % NG
	3065	 87.5925	 0.0	 73.0	 -73.0	 1.0	 96.6	 1	 145	 30.185	 0.0	 0.0	 0.0	 0.0	 0.0	 0.0	 0.0	 0.0	 0.0	 0.0	 80.5; % NG
	3068	 144.625	 0.0	 117.0	 -117.0	 1.0	 180.0	 1	 233	 56.25	 0.0	 0.0	 0.0	 0.0	 0.0	 0.0	 0.0	 0.0	 0.0	 0.0	 150.0; % NG
	3071	 120.4125	 0.0	 89.0	 -89.0	 1.0	 204.24	 1	 177	 63.825	 0.0	 0.0	 0.0	 0.0	 0.0	 0.0	 0.0	 0.0	 0.0	 0.0	 170.2; % NG
	3074	 184.2125	 0.0	 166.0	 -166.0	 1.0	 119.76	 1	 331	 37.425	 0.0	 0.0	 0.0	 0.0	 0.0	 0.0	 0.0	 0.0	 0.0	 0.0	 99.8; % COW
	3081	 201.1875	 0.0	 155.0	 -155.0	 1.0	 298.8	 1	 309	 93.375	 0.0	 0.0	 0.0	 0.0	 0.0	 0.0	 0.0	 0.0	 0.0	 0.0	 249.0; % NG
	3084	 220.5925	 0.0	 177.0	 -177.0	 1.0	 279.0	 1	 354	 87.185	 0.0	 0.0	 0.0	 0.0	 0.0	 0.0	 0.0	 0.0	 0.0	 0.0	 232.5; % NG
	3086	 57.0625	 0.0	 43.0	 -43.0	 1.0	 90.0	 1	 86	 28.125	 0.0	 0.0	 0.0	 0.0	 0.0	 0.0	 0.0	 0.0	 0.0	 0.0	 75.0; % NG
	3087	 33.125	 0.0	 28.0	 -28.0	 1.0	 90.0	 0	 55	 11.25	 0.0	 0.0	 0.0	 0.0	 0.0	 0.0	 0.0	 0.0	 0.0	 0.0	 75.0; % PEL
	3092	 167.5	 0.0	 130.0	 -130.0	 1.0	 240.0	 1	 260	 75.0	 0.0	 0.0	 0.0	 0.0	 0.0	 0.0	 0.0	 0.0	 0.0	 0.0	 200.0; % COW
	3095	 78.1125	 0.0	 56.0	 -56.0	 1.0	 144.72	 1	 111	 45.225	 0.0	 0.0	 0.0	 0.0	 0.0	 0.0	 0.0	 0.0	 0.0	 0.0	 120.6; % NG
	3098	 120.5	 0.0	 91.0	 -91.0	 1.0	 192.0	 1	 181	 60.0	 0.0	 0.0	 0.0	 0.0	 0.0	 0.0	 0.0	 0.0	 0.0	 0.0	 160.0; % NG
	3105	 47.625	 0.0	 37.0	 -37.0	 1.0	 18.0	 1	 73	 22.25	 0.0	 0.0	 0.0	 0.0	 0.0	 0.0	 0.0	 0.0	 0.0	 0.0	 15.0; % NG
	3106	 201.755	 0.0	 189.0	 -189.0	 1.0	 65.88	 1	 377	 26.51	 0.0	 0.0	 0.0	 0.0	 0.0	 0.0	 0.0	 0.0	 0.0	 0.0	 54.9; % COW
	3110	 106.25	 0.0	 91.0	 -91.0	 1.0	 100.8	 1	 181	 31.5	 0.0	 0.0	 0.0	 0.0	 0.0	 0.0	 0.0	 0.0	 0.0	 0.0	 84.0; % COW
	3112	 110.025	 0.0	 96.0	 -96.0	 1.0	 89.76	 1	 192	 28.05	 0.0	 0.0	 0.0	 0.0	 0.0	 0.0	 0.0	 0.0	 0.0	 0.0	 74.8; % PEL
	3113	 70.025	 0.0	 56.0	 -56.0	 1.0	 89.76	 1	 112	 28.05	 0.0	 0.0	 0.0	 0.0	 0.0	 0.0	 0.0	 0.0	 0.0	 0.0	 74.8; % NG
	3117	 61.3125	 0.0	 50.0	 -50.0	 1.0	 75.6	 1	 99	 23.625	 0.0	 0.0	 0.0	 0.0	 0.0	 0.0	 0.0	 0.0	 0.0	 0.0	 63.0; % NG
	3118	 92.5	 0.0	 70.0	 -70.0	 1.0	 144.0	 1	 140	 45.0	 0.0	 0.0	 0.0	 0.0	 0.0	 0.0	 0.0	 0.0	 0.0	 0.0	 120.0; % NG
	3120	 37.925	 0.0	 31.0	 -31.0	 1.0	 47.52	 1	 61	 14.85	 0.0	 0.0	 0.0	 0.0	 0.0	 0.0	 0.0	 0.0	 0.0	 0.0	 39.6; % NG
	3122	 118.4375	 0.0	 82.0	 -82.0	 1.0	 236.4	 1	 163	 73.875	 0.0	 0.0	 0.0	 0.0	 0.0	 0.0	 0.0	 0.0	 0.0	 0.0	 197.0; % NG
	3127	 178.3125	 0.0	 153.0	 -153.0	 1.0	 162.0	 1	 306	 50.625	 0.0	 0.0	 0.0	 0.0	 0.0	 0.0	 0.0	 0.0	 0.0	 0.0	 135.0; % NG
	3129	 99.72	 0.0	 76.0	 -76.0	 1.0	 151.8	 1	 152	 47.44	 0.0	 0.0	 0.0	 0.0	 0.0	 0.0	 0.0	 0.0	 0.0	 0.0	 126.5; % NG
	3131	 202.875	 0.0	 182.0	 -182.0	 1.0	 136.8	 1	 363	 42.75	 0.0	 0.0	 0.0	 0.0	 0.0	 0.0	 0.0	 0.0	 0.0	 0.0	 114.0; % NG
	3133	 28.8475	 0.555	 26.11	 -25.0	 1.0	 61.56	 0	 50	 7.695	 0.0	 0.0	 0.0	 0.0	 0.0	 0.0	 0.0	 0.0	 0.0	 0.0	 51.3; % NG
	3133	 50.8475	 0.0	 47.0	 -47.0	 1.0	 61.56	 0	 94	 7.695	 0.0	 0.0	 0.0	 0.0	 0.0	 0.0	 0.0	 0.0	 0.0	 0.0	 51.3; % NG
	3133	 80.8475	 0.0	 77.0	 -77.0	 1.0	 61.56	 0	 154	 7.695	 0.0	 0.0	 0.0	 0.0	 0.0	 0.0	 0.0	 0.0	 0.0	 0.0	 51.3; % NG
	3137	 80.975	 0.0	 62.0	 -62.0	 1.0	 121.44	 1	 124	 37.95	 0.0	 0.0	 0.0	 0.0	 0.0	 0.0	 0.0	 0.0	 0.0	 0.0	 101.2; % PEL
	3141	 58.655	 0.0	 42.0	 -42.0	 1.0	 109.8	 1	 83	 34.31	 0.0	 0.0	 0.0	 0.0	 0.0	 0.0	 0.0	 0.0	 0.0	 0.0	 91.5; % PEL
	4010	 207.8	 0.0	 170.0	 -170.0	 1.0	 241.92	 1	 340	 75.6	 0.0	 0.0	 0.0	 0.0	 0.0	 0.0	 0.0	 0.0	 0.0	 0.0	 201.6; % NG
	4026	 181.75	 20.03	 191.06	 -151.0	 1.0	 492.0	 1	 302	 61.5	 0.0	 0.0	 0.0	 0.0	 0.0	 0.0	 0.0	 0.0	 0.0	 0.0	 410.0; % NG
	4030	 517.68	 0.0	 471.0	 -471.0	 1.0	 746.88	 1	 942	 93.36	 0.0	 0.0	 0.0	 0.0	 0.0	 0.0	 0.0	 0.0	 0.0	 0.0	 622.4; % COW
	4045	 88.85	 0.0	 66.0	 -66.0	 1.0	 37.8	 1	 131	 46.7	 0.0	 0.0	 0.0	 0.0	 0.0	 0.0	 0.0	 0.0	 0.0	 0.0	 31.5; % NG
	4046	 34.625	 0.0	 28.0	 -28.0	 1.0	 11.52	 1	 55	 14.25	 0.0	 0.0	 0.0	 0.0	 0.0	 0.0	 0.0	 0.0	 0.0	 0.0	 9.6; % NG
	4047	 94.87	 0.0	 88.0	 -88.0	 1.0	 79.2	 1	 176	 13.74	 0.0	 0.0	 0.0	 0.0	 0.0	 0.0	 0.0	 0.0	 0.0	 0.0	 66.0; % COW
	4050	 204.5	 0.0	 167.0	 -167.0	 1.0	 240.0	 1	 334	 75.0	 0.0	 0.0	 0.0	 0.0	 0.0	 0.0	 0.0	 0.0	 0.0	 0.0	 200.0; % NG
	4052	 78.315	 0.0	 75.0	 -75.0	 1.0	 53.04	 1	 150	 6.63	 0.0	 0.0	 0.0	 0.0	 0.0	 0.0	 0.0	 0.0	 0.0	 0.0	 44.2; % NG
	4058	 165.8	 0.0	 155.0	 -155.0	 1.0	 172.8	 1	 310	 21.6	 0.0	 0.0	 0.0	 0.0	 0.0	 0.0	 0.0	 0.0	 0.0	 0.0	 144.0; % NG
	4059	 89.3	 0.0	 79.0	 -79.0	 1.0	 172.8	 1	 157	 21.6	 0.0	 0.0	 0.0	 0.0	 0.0	 0.0	 0.0	 0.0	 0.0	 0.0	 144.0; % COW
	4060	 68.3	 7.65	 73.3	 -58.0	 1.0	 172.8	 1	 115	 21.6	 0.0	 0.0	 0.0	 0.0	 0.0	 0.0	 0.0	 0.0	 0.0	 0.0	 144.0; % COW
	4061	 95.425	 2.36	 87.72	 -83.0	 1.0	 206.8	 1	 165	 25.85	 0.0	 0.0	 0.0	 0.0	 0.0	 0.0	 0.0	 0.0	 0.0	 0.0	 172.33; % NG
	4062	 177.925	 0.0	 165.0	 -165.0	 1.0	 206.8	 1	 330	 25.85	 0.0	 0.0	 0.0	 0.0	 0.0	 0.0	 0.0	 0.0	 0.0	 0.0	 172.33; % NG
	4063	 85.425	 7.36	 87.72	 -73.0	 1.0	 206.8	 1	 145	 25.85	 0.0	 0.0	 0.0	 0.0	 0.0	 0.0	 0.0	 0.0	 0.0	 0.0	 172.33; % NG
	4065	 50.025	 0.0	 47.0	 -47.0	 1.0	 56.4	 1	 93	 7.05	 0.0	 0.0	 0.0	 0.0	 0.0	 0.0	 0.0	 0.0	 0.0	 0.0	 47.0; % NG
	4075	 168.725	 0.0	 156.0	 -156.0	 1.0	 211.6	 0	 311	 26.45	 0.0	 0.0	 0.0	 0.0	 0.0	 0.0	 0.0	 0.0	 0.0	 0.0	 176.33; % COW
	4076	 126.225	 0.0	 113.0	 -113.0	 1.0	 211.6	 1	 226	 26.45	 0.0	 0.0	 0.0	 0.0	 0.0	 0.0	 0.0	 0.0	 0.0	 0.0	 176.33; % NG
	4077	 127.225	 0.0	 114.0	 -114.0	 1.0	 211.6	 1	 228	 26.45	 0.0	 0.0	 0.0	 0.0	 0.0	 0.0	 0.0	 0.0	 0.0	 0.0	 176.33; % NG
	4082	 158.255	 0.0	 140.0	 -140.0	 1.0	 292.08	 1	 280	 36.51	 0.0	 0.0	 0.0	 0.0	 0.0	 0.0	 0.0	 0.0	 0.0	 0.0	 243.4; % COW
	4083	 122.755	 9.445	 123.89	 -105.0	 1.0	 292.08	 1	 209	 36.51	 0.0	 0.0	 0.0	 0.0	 0.0	 0.0	 0.0	 0.0	 0.0	 0.0	 243.4; % NG
	4084	 164.755	 0.0	 147.0	 -147.0	 1.0	 292.08	 1	 293	 36.51	 0.0	 0.0	 0.0	 0.0	 0.0	 0.0	 0.0	 0.0	 0.0	 0.0	 243.4; % NG
	4085	 342.9	 0.0	 317.0	 -317.0	 1.0	 422.4	 1	 633	 52.8	 0.0	 0.0	 0.0	 0.0	 0.0	 0.0	 0.0	 0.0	 0.0	 0.0	 352.0; % COW
	4090	 0.605	 0.0	 1.0	 -1.0	 1.0	 1.68	 0	 1	 0.21	 0.0	 0.0	 0.0	 0.0	 0.0	 0.0	 0.0	 0.0	 0.0	 0.0	 1.4; % PEL
	4091	 26.2625	 0.0	 25.0	 -25.0	 1.0	 28.2	 1	 49	 3.525	 0.0	 0.0	 0.0	 0.0	 0.0	 0.0	 0.0	 0.0	 0.0	 0.0	 23.5; % COW
	4092	 12.07	 0.0	 12.0	 -12.0	 1.0	 9.12	 0	 23	 1.14	 0.0	 0.0	 0.0	 0.0	 0.0	 0.0	 0.0	 0.0	 0.0	 0.0	 7.6; % PEL
	4093	 24.6	 0.0	 23.0	 -23.0	 1.0	 33.6	 1	 45	 4.2	 0.0	 0.0	 0.0	 0.0	 0.0	 0.0	 0.0	 0.0	 0.0	 0.0	 28.0; % NG
	4094	 26.1	 0.0	 24.0	 -24.0	 1.0	 33.6	 1	 48	 4.2	 0.0	 0.0	 0.0	 0.0	 0.0	 0.0	 0.0	 0.0	 0.0	 0.0	 28.0; % NG
	4095	 23.1	 0.0	 21.0	 -21.0	 1.0	 33.6	 1	 42	 4.2	 0.0	 0.0	 0.0	 0.0	 0.0	 0.0	 0.0	 0.0	 0.0	 0.0	 28.0; % PEL
	4096	 29.1	 0.0	 27.0	 -27.0	 1.0	 33.6	 0	 54	 4.2	 0.0	 0.0	 0.0	 0.0	 0.0	 0.0	 0.0	 0.0	 0.0	 0.0	 28.0; % NG
	4097	 24.1	 0.0	 22.0	 -22.0	 1.0	 33.6	 1	 44	 4.2	 0.0	 0.0	 0.0	 0.0	 0.0	 0.0	 0.0	 0.0	 0.0	 0.0	 28.0; % PEL
	4098	 44.6	 0.0	 43.0	 -43.0	 1.0	 33.6	 0	 85	 4.2	 0.0	 0.0	 0.0	 0.0	 0.0	 0.0	 0.0	 0.0	 0.0	 0.0	 28.0; % COW
	4105	 145.25	 0.0	 112.0	 -112.0	 1.0	 216.0	 1	 223	 67.5	 0.0	 0.0	 0.0	 0.0	 0.0	 0.0	 0.0	 0.0	 0.0	 0.0	 180.0; % NG
	4115	 123.885	 0.0	 114.0	 -114.0	 1.0	 158.16	 1	 228	 19.77	 0.0	 0.0	 0.0	 0.0	 0.0	 0.0	 0.0	 0.0	 0.0	 0.0	 131.8; % NG
	4116	 83.385	 0.0	 74.0	 -74.0	 1.0	 158.16	 1	 147	 19.77	 0.0	 0.0	 0.0	 0.0	 0.0	 0.0	 0.0	 0.0	 0.0	 0.0	 131.8; % NG
	4133	 40.52	 0.0	 38.0	 -38.0	 1.0	 40.32	 0	 76	 5.04	 0.0	 0.0	 0.0	 0.0	 0.0	 0.0	 0.0	 0.0	 0.0	 0.0	 33.6; % NG
	4134	 13.02	 0.0	 21.6	 -21.6	 1.0	 40.32	 1	 21	 5.04	 0.0	 0.0	 0.0	 0.0	 0.0	 0.0	 0.0	 0.0	 0.0	 0.0	 33.6; % PEL
	4135	 40.02	 0.0	 38.0	 -38.0	 1.0	 40.32	 1	 75	 5.04	 0.0	 0.0	 0.0	 0.0	 0.0	 0.0	 0.0	 0.0	 0.0	 0.0	 33.6; % NG
	4136	 24.02	 0.0	 22.0	 -22.0	 1.0	 40.32	 1	 43	 5.04	 0.0	 0.0	 0.0	 0.0	 0.0	 0.0	 0.0	 0.0	 0.0	 0.0	 33.6; % COW
	4137	 103.04	 0.0	 98.0	 -98.0	 1.0	 80.64	 0	 196	 10.08	 0.0	 0.0	 0.0	 0.0	 0.0	 0.0	 0.0	 0.0	 0.0	 0.0	 67.2; % NG
	4138	 74.45	 0.0	 70.0	 -70.0	 1.0	 79.2	 0	 139	 9.9	 0.0	 0.0	 0.0	 0.0	 0.0	 0.0	 0.0	 0.0	 0.0	 0.0	 66.0; % NG
	4142	 148.75	 0.0	 114.0	 -114.0	 1.0	 225.6	 1	 227	 70.5	 0.0	 0.0	 0.0	 0.0	 0.0	 0.0	 0.0	 0.0	 0.0	 0.0	 188.0; % NG
	4153	 232.6	 0.0	 180.0	 -180.0	 1.0	 339.84	 1	 359	 106.2	 0.0	 0.0	 0.0	 0.0	 0.0	 0.0	 0.0	 0.0	 0.0	 0.0	 283.2; % NG
	4160	 288.3325	 0.0	 274.0	 -274.0	 1.0	 237.32	 1	 547	 29.665	 0.0	 0.0	 0.0	 0.0	 0.0	 0.0	 0.0	 0.0	 0.0	 0.0	 197.77; % COW
	4161	 287.8325	 0.0	 273.0	 -273.0	 1.0	 237.32	 1	 546	 29.665	 0.0	 0.0	 0.0	 0.0	 0.0	 0.0	 0.0	 0.0	 0.0	 0.0	 197.77; % NG
	4162	 152.3325	 0.0	 138.0	 -138.0	 1.0	 237.32	 1	 275	 29.665	 0.0	 0.0	 0.0	 0.0	 0.0	 0.0	 0.0	 0.0	 0.0	 0.0	 197.77; % NG
	4163	 6.675	 0.0	 6.0	 -6.0	 1.0	 10.8	 0	 12	 1.35	 0.0	 0.0	 0.0	 0.0	 0.0	 0.0	 0.0	 0.0	 0.0	 0.0	 9.0; % NG
	4166	 158.6875	 0.0	 121.0	 -121.0	 1.0	 241.2	 1	 242	 75.375	 0.0	 0.0	 0.0	 0.0	 0.0	 0.0	 0.0	 0.0	 0.0	 0.0	 201.0; % NG
	4177	 201.625	 0.0	 174.0	 -174.0	 1.0	 180.0	 1	 347	 56.25	 0.0	 0.0	 0.0	 0.0	 0.0	 0.0	 0.0	 0.0	 0.0	 0.0	 150.0; % NG
	4181	 400.5175	 0.0	 529.2	 -529.2	 1.0	 240.12	 1	 726	 75.035	 0.0	 0.0	 0.0	 0.0	 0.0	 0.0	 0.0	 0.0	 0.0	 0.0	 200.1; % NG
	4183	 332.0625	 0.0	 298.8	 -298.8	 1.0	 243.6	 1	 588	 76.125	 0.0	 0.0	 0.0	 0.0	 0.0	 0.0	 0.0	 0.0	 0.0	 0.0	 203.0; % NG
	4192	 97.625	 0.0	 92.0	 -92.0	 1.0	 90.0	 1	 184	 11.25	 0.0	 0.0	 0.0	 0.0	 0.0	 0.0	 0.0	 0.0	 0.0	 0.0	 75.0; % PEL
	4192	 215.2825	 0.0	 202.0	 -202.0	 1.0	 220.52	 1	 403	 27.565	 0.0	 0.0	 0.0	 0.0	 0.0	 0.0	 0.0	 0.0	 0.0	 0.0	 183.77; % NG
	4192	 16.3	 0.0	 15.0	 -15.0	 1.0	 28.8	 0	 29	 3.6	 0.0	 0.0	 0.0	 0.0	 0.0	 0.0	 0.0	 0.0	 0.0	 0.0	 24.0; % PEL
	4192	 112.075	 0.0	 108.0	 -108.0	 1.0	 73.2	 1	 215	 9.15	 0.0	 0.0	 0.0	 0.0	 0.0	 0.0	 0.0	 0.0	 0.0	 0.0	 61.0; % NG
	4192	 86.28	 0.0	 86.0	 -86.0	 1.0	 12.48	 1	 171	 1.56	 0.0	 0.0	 0.0	 0.0	 0.0	 0.0	 0.0	 0.0	 0.0	 0.0	 10.4; % PEL
	4192	 359.025	 0.0	 339.0	 -339.0	 1.0	 320.4	 1	 678	 40.05	 0.0	 0.0	 0.0	 0.0	 0.0	 0.0	 0.0	 0.0	 0.0	 0.0	 267.0; % NG
	4192	 133.025	 11.45	 135.9	 -113.0	 1.0	 320.4	 1	 226	 40.05	 0.0	 0.0	 0.0	 0.0	 0.0	 0.0	 0.0	 0.0	 0.0	 0.0	 267.0; % NG
	4192	 197.525	 0.0	 178.0	 -178.0	 1.0	 320.4	 1	 355	 40.05	 0.0	 0.0	 0.0	 0.0	 0.0	 0.0	 0.0	 0.0	 0.0	 0.0	 267.0; % NG
	4192	 131.7825	 0.0	 118.0	 -118.0	 1.0	 220.52	 1	 236	 27.565	 0.0	 0.0	 0.0	 0.0	 0.0	 0.0	 0.0	 0.0	 0.0	 0.0	 183.77; % NG
	4192	 110.7825	 0.0	 97.0	 -97.0	 1.0	 220.52	 1	 194	 27.565	 0.0	 0.0	 0.0	 0.0	 0.0	 0.0	 0.0	 0.0	 0.0	 0.0	 183.77; % NG
	4194	 235.8	 0.0	 198.0	 -198.0	 1.0	 241.92	 1	 396	 75.6	 0.0	 0.0	 0.0	 0.0	 0.0	 0.0	 0.0	 0.0	 0.0	 0.0	 201.6; % NG
	4195	 386.25	 0.0	 369.0	 -369.0	 1.0	 110.4	 1	 738	 34.5	 0.0	 0.0	 0.0	 0.0	 0.0	 0.0	 0.0	 0.0	 0.0	 0.0	 92.0; % PEL
	5020	 139.0	 0.0	 117.0	 -117.0	 1.0	 144.0	 1	 233	 45.0	 0.0	 0.0	 0.0	 0.0	 0.0	 0.0	 0.0	 0.0	 0.0	 0.0	 120.0; % PEL
	5023	 5.36	 0.0	 5.0	 -5.0	 1.0	 5.76	 0	 10	 0.72	 0.0	 0.0	 0.0	 0.0	 0.0	 0.0	 0.0	 0.0	 0.0	 0.0	 4.8; % NG
	5035	 4.315	 0.0	 4.0	 -4.0	 1.0	 5.04	 0	 8	 0.63	 0.0	 0.0	 0.0	 0.0	 0.0	 0.0	 0.0	 0.0	 0.0	 0.0	 4.2; % NG
	5036	 8.98	 0.0	 9.0	 -9.0	 1.0	 7.68	 0	 17	 0.96	 0.0	 0.0	 0.0	 0.0	 0.0	 0.0	 0.0	 0.0	 0.0	 0.0	 6.4; % PEL
	5037	 370.135	 0.0	 347.0	 -347.0	 1.0	 370.16	 1	 694	 46.27	 0.0	 0.0	 0.0	 0.0	 0.0	 0.0	 0.0	 0.0	 0.0	 0.0	 308.47; % COW
	5038	 172.635	 3.505	 157.01	 -150.0	 1.0	 370.16	 1	 299	 46.27	 0.0	 0.0	 0.0	 0.0	 0.0	 0.0	 0.0	 0.0	 0.0	 0.0	 308.47; % NG
	5039	 146.135	 16.105	 157.01	 -124.8	 1.0	 370.16	 1	 246	 46.27	 0.0	 0.0	 0.0	 0.0	 0.0	 0.0	 0.0	 0.0	 0.0	 0.0	 308.47; % NG
	5040	 195.635	 0.0	 173.0	 -173.0	 1.0	 370.16	 1	 345	 46.27	 0.0	 0.0	 0.0	 0.0	 0.0	 0.0	 0.0	 0.0	 0.0	 0.0	 308.47; % COW
	5041	 143.135	 18.505	 157.01	 -120.0	 1.0	 370.16	 1	 240	 46.27	 0.0	 0.0	 0.0	 0.0	 0.0	 0.0	 0.0	 0.0	 0.0	 0.0	 308.47; % NG
	5042	 242.135	 0.0	 219.0	 -219.0	 1.0	 370.16	 1	 438	 46.27	 0.0	 0.0	 0.0	 0.0	 0.0	 0.0	 0.0	 0.0	 0.0	 0.0	 308.47; % NG
	5051	 73.3525	 0.0	 156.0	 -156.0	 1.0	 101.64	 1	 134	 12.705	 0.0	 0.0	 0.0	 0.0	 0.0	 0.0	 0.0	 0.0	 0.0	 0.0	 84.7; % NG
	5057	 347.3	 0.0	 324.0	 -324.0	 1.0	 380.82	 0	 647	 47.6	 0.0	 0.0	 0.0	 0.0	 0.0	 0.0	 0.0	 0.0	 0.0	 0.0	 317.35; % COW
	5058	 164.8	 10.265	 161.53	 -141.0	 1.0	 380.82	 1	 282	 47.6	 0.0	 0.0	 0.0	 0.0	 0.0	 0.0	 0.0	 0.0	 0.0	 0.0	 317.35; % NG
	5065	 72.295	 0.0	 72.0	 -72.0	 1.0	 12.72	 1	 143	 1.59	 0.0	 0.0	 0.0	 0.0	 0.0	 0.0	 0.0	 0.0	 0.0	 0.0	 10.6; % COW
	5066	 1.635	 0.0	 2.0	 -2.0	 1.0	 2.16	 0	 3	 0.27	 0.0	 0.0	 0.0	 0.0	 0.0	 0.0	 0.0	 0.0	 0.0	 0.0	 1.8; % NG
	5067	 215.87	 20.04	 223.08	 -183.0	 1.0	 525.92	 1	 366	 65.74	 0.0	 0.0	 0.0	 0.0	 0.0	 0.0	 0.0	 0.0	 0.0	 0.0	 438.27; % NG
	5068	 348.87	 0.0	 316.0	 -316.0	 1.0	 525.92	 1	 632	 65.74	 0.0	 0.0	 0.0	 0.0	 0.0	 0.0	 0.0	 0.0	 0.0	 0.0	 438.27; % NG
	5069	 225.37	 15.04	 223.08	 -193.0	 1.0	 525.92	 1	 385	 65.74	 0.0	 0.0	 0.0	 0.0	 0.0	 0.0	 0.0	 0.0	 0.0	 0.0	 438.27; % NG
	5089	 53.5	 0.0	 54.0	 -54.0	 1.0	 50.16	 0	 107	 0.0	 0.0	 0.0	 0.0	 0.0	 0.0	 0.0	 0.0	 0.0	 0.0	 0.0	 41.8; % NG
...
];

%% generator cost data
%	2	startup	shutdown	n	c(n-1)	...	c0
mpc.gencost = [
	2	 0.0	 0.0	 3	   0.000000	   0.000000	   0.000000; % NG
	2	 0.0	 0.0	 3	   0.000000	   0.000000	   0.000000; % NG
	2	 0.0	 0.0	 3	   0.000000	   0.000000	   0.000000; % NG
	2	 0.0	 0.0	 3	   0.000000	   0.000000	   0.000000; % PEL
	2	 0.0	 0.0	 3	   0.000000	   0.000000	   0.000000; % NG
	2	 0.0	 0.0	 3	   0.000000	   0.000000	   0.000000; % NG
	2	 0.0	 0.0	 3	   0.000000	   0.000000	   0.000000; % NG
	2	 0.0	 0.0	 3	   0.000000	   0.000000	   0.000000; % NG
	2	 0.0	 0.0	 3	   0.000000	   0.000000	   0.000000; % NG
	2	 0.0	 0.0	 3	   0.000000	   0.000000	   0.000000; % NG
	2	 0.0	 0.0	 3	   0.000000	   0.000000	   0.000000; % NG
	2	 0.0	 0.0	 3	   0.000000	   0.000000	   0.000000; % NG
	2	 0.0	 0.0	 3	   0.001000	  18.641000	 1087.800000; % NG
	2	 0.0	 0.0	 3	   0.001000	  18.641000	 1087.800000; % COW
	2	 0.0	 0.0	 3	   0.001000	  17.464000	 734.100000; % NG
	2	 0.0	 0.0	 3	   0.001000	  17.464000	 734.100000; % NG
	2	 0.0	 0.0	 3	   0.001000	  17.464000	 734.100000; % NG
	2	 0.0	 0.0	 3	   0.001000	  17.910000	 868.200000; % NG
	2	 0.0	 0.0	 3	   0.000000	   0.000000	   0.000000; % NG
	2	 0.0	 0.0	 3	   0.001000	  17.046000	 608.400000; % PEL
	2	 0.0	 0.0	 3	   0.001000	  17.028000	 603.000000; % PEL
	2	 0.0	 0.0	 3	   0.000000	   0.000000	   0.000000; % PEL
	2	 0.0	 0.0	 3	   0.000000	   0.000000	   0.000000; % NG
	2	 0.0	 0.0	 3	   0.000000	   0.000000	   0.000000; % COW
	2	 0.0	 0.0	 3	   0.000000	   0.000000	   0.000000; % COW
	2	 0.0	 0.0	 3	   0.001000	  17.977000	 888.200000; % NG
	2	 0.0	 0.0	 3	   0.001000	  17.977000	 888.200000; % NG
	2	 0.0	 0.0	 3	   0.001000	  17.977000	 888.200000; % NG
	2	 0.0	 0.0	 3	   0.001000	  17.977000	 888.200000; % COW
	2	 0.0	 0.0	 3	   0.001000	  17.977000	 888.200000; % COW
	2	 0.0	 0.0	 3	   0.001000	  17.977000	 888.200000; % NG
	2	 0.0	 0.0	 3	   0.001000	  17.495000	 743.250000; % NG
	2	 0.0	 0.0	 3	   0.001000	  17.495000	 743.250000; % NG
	2	 0.0	 0.0	 3	   0.001000	  17.495000	 743.250000; % NG
	2	 0.0	 0.0	 3	   0.001000	  18.448000	 1029.750000; % NG
	2	 0.0	 0.0	 3	   0.000000	   0.000000	   0.000000; % NG
	2	 0.0	 0.0	 3	   0.000000	   0.000000	   0.000000; % NG
	2	 0.0	 0.0	 3	   0.000000	   0.000000	   0.000000; % NG
	2	 0.0	 0.0	 3	   0.000000	   0.000000	   0.000000; % NG
	2	 0.0	 0.0	 3	   0.000000	   0.000000	   0.000000; % PEL
	2	 0.0	 0.0	 3	   0.002000	  27.494000	 1187.700000; % COW
	2	 0.0	 0.0	 3	   0.002000	  27.494000	 1187.700000; % NG
	2	 0.0	 0.0	 3	   0.002000	  27.494000	 1187.700000; % NG
	2	 0.0	 0.0	 3	   0.000000	   0.000000	   0.000000; % COW
	2	 0.0	 0.0	 3	   0.000000	   0.000000	   0.000000; % NG
	2	 0.0	 0.0	 3	   0.001000	  16.989000	 724.990000; % NG
	2	 0.0	 0.0	 3	   0.001000	  17.394000	 850.010000; % NG
	2	 0.0	 0.0	 3	   0.000000	   0.000000	   0.000000; % PEL
	2	 0.0	 0.0	 3	   0.002000	  17.268000	 236.160000; % NG
	2	 0.0	 0.0	 3	   0.002000	  17.268000	 1398.510000; % COW
	2	 0.0	 0.0	 3	   0.000000	   0.000000	   0.000000; % NG
	2	 0.0	 0.0	 3	   0.000000	   0.000000	   0.000000; % NG
	2	 0.0	 0.0	 3	   0.000000	   0.000000	   0.000000; % NG
	2	 0.0	 0.0	 3	   0.000000	   0.000000	   0.000000; % NG
	2	 0.0	 0.0	 3	   0.000000	   0.000000	   0.000000; % NG
	2	 0.0	 0.0	 3	   0.001000	  16.033000	 630.000000; % PEL
	2	 0.0	 0.0	 3	   0.001000	  16.033000	 630.000000; % NG
	2	 0.0	 0.0	 3	   0.001000	  16.126000	 660.000000; % NG
	2	 0.0	 0.0	 3	   0.000000	   0.000000	   0.000000; % NG
	2	 0.0	 0.0	 3	   0.000000	   0.000000	   0.000000; % NG
	2	 0.0	 0.0	 3	   0.000000	   0.000000	   0.000000; % COW
	2	 0.0	 0.0	 3	   0.000000	   0.000000	   0.000000; % COW
	2	 0.0	 0.0	 3	   0.000000	   0.000000	   0.000000; % NG
	2	 0.0	 0.0	 3	   0.002000	  26.597000	 1001.590000; % NG
	2	 0.0	 0.0	 3	   0.002000	  26.597000	 1001.590000; % NG
	2	 0.0	 0.0	 3	   0.002000	  26.597000	 1001.590000; % NG
	2	 0.0	 0.0	 3	   0.001000	  17.482000	 877.080000; % NG
	2	 0.0	 0.0	 3	   0.001000	  17.482000	 877.080000; % NG
	2	 0.0	 0.0	 3	   0.001000	  17.482000	 877.080000; % NG
	2	 0.0	 0.0	 3	   0.001000	  17.482000	 877.080000; % NG
	2	 0.0	 0.0	 3	   0.001000	  17.482000	 877.080000; % NG
	2	 0.0	 0.0	 3	   0.001000	  17.482000	 877.080000; % NG
	2	 0.0	 0.0	 3	   0.000000	   0.000000	   0.000000; % NG
	2	 0.0	 0.0	 3	   0.000000	   0.000000	   0.000000; % COW
	2	 0.0	 0.0	 3	   0.000000	   0.000000	   0.000000; % PEL
	2	 0.0	 0.0	 3	   0.000000	   0.000000	   0.000000; % NG
	2	 0.0	 0.0	 3	   0.000000	   0.000000	   0.000000; % NG
	2	 0.0	 0.0	 3	   0.000000	   0.000000	   0.000000; % NG
	2	 0.0	 0.0	 3	   0.000000	   0.000000	   0.000000; % NG
	2	 0.0	 0.0	 3	   0.000000	   0.000000	   0.000000; % NG
	2	 0.0	 0.0	 3	   0.002000	  19.197000	 601.950000; % PEL
	2	 0.0	 0.0	 3	   0.002000	  19.693000	 734.100000; % NG
	2	 0.0	 0.0	 3	   0.002000	  21.704000	 1365.860000; % COW
	2	 0.0	 0.0	 3	   0.000000	   0.000000	   0.000000; % NG
	2	 0.0	 0.0	 3	   0.000000	   0.000000	   0.000000; % NG
	2	 0.0	 0.0	 3	   0.000000	   0.000000	   0.000000; % NG
	2	 0.0	 0.0	 3	   0.000000	   0.000000	   0.000000; % NG
	2	 0.0	 0.0	 3	   0.000000	   0.000000	   0.000000; % NG
	2	 0.0	 0.0	 3	   0.000000	   0.000000	   0.000000; % NG
	2	 0.0	 0.0	 3	   0.000000	   0.000000	   0.000000; % NG
	2	 0.0	 0.0	 3	   0.000000	   0.000000	   0.000000; % NG
	2	 0.0	 0.0	 3	   0.000000	   0.000000	   0.000000; % NG
	2	 0.0	 0.0	 3	   0.000000	   0.000000	   0.000000; % NG
	2	 0.0	 0.0	 3	   0.000000	   0.000000	   0.000000; % NG
	2	 0.0	 0.0	 3	   0.000000	   0.000000	   0.000000; % COW
	2	 0.0	 0.0	 3	   0.000000	   0.000000	   0.000000; % NG
	2	 0.0	 0.0	 3	   0.000000	   0.000000	   0.000000; % NG
	2	 0.0	 0.0	 3	   0.000000	   0.000000	   0.000000; % NG
	2	 0.0	 0.0	 3	   0.000000	   0.000000	   0.000000; % PEL
	2	 0.0	 0.0	 3	   0.000000	   0.000000	   0.000000; % COW
	2	 0.0	 0.0	 3	   0.000000	   0.000000	   0.000000; % NG
	2	 0.0	 0.0	 3	   0.000000	   0.000000	   0.000000; % NG
	2	 0.0	 0.0	 3	   0.000000	   0.000000	   0.000000; % NG
	2	 0.0	 0.0	 3	   0.000000	   0.000000	   0.000000; % COW
	2	 0.0	 0.0	 3	   0.000000	   0.000000	   0.000000; % COW
	2	 0.0	 0.0	 3	   0.000000	   0.000000	   0.000000; % PEL
	2	 0.0	 0.0	 3	   0.000000	   0.000000	   0.000000; % NG
	2	 0.0	 0.0	 3	   0.000000	   0.000000	   0.000000; % NG
	2	 0.0	 0.0	 3	   0.000000	   0.000000	   0.000000; % NG
	2	 0.0	 0.0	 3	   0.000000	   0.000000	   0.000000; % NG
	2	 0.0	 0.0	 3	   0.000000	   0.000000	   0.000000; % NG
	2	 0.0	 0.0	 3	   0.000000	   0.000000	   0.000000; % NG
	2	 0.0	 0.0	 3	   0.000000	   0.000000	   0.000000; % NG
	2	 0.0	 0.0	 3	   0.000000	   0.000000	   0.000000; % NG
	2	 0.0	 0.0	 3	   0.002000	  19.478000	 676.950000; % NG
	2	 0.0	 0.0	 3	   0.002000	  19.478000	 676.950000; % NG
	2	 0.0	 0.0	 3	   0.002000	  19.478000	 676.950000; % NG
	2	 0.0	 0.0	 3	   0.000000	   0.000000	   0.000000; % PEL
	2	 0.0	 0.0	 3	   0.000000	   0.000000	   0.000000; % PEL
	2	 0.0	 0.0	 3	   0.000000	   0.000000	   0.000000; % NG
	2	 0.0	 0.0	 3	   0.002000	  17.172000	 1243.080000; % NG
	2	 0.0	 0.0	 3	   0.002000	  17.172000	 1349.570000; % COW
	2	 0.0	 0.0	 3	   0.000000	   0.000000	   0.000000; % NG
	2	 0.0	 0.0	 3	   0.000000	   0.000000	   0.000000; % NG
	2	 0.0	 0.0	 3	   0.000000	   0.000000	   0.000000; % COW
	2	 0.0	 0.0	 3	   0.000000	   0.000000	   0.000000; % NG
	2	 0.0	 0.0	 3	   0.001000	  16.730000	 666.300000; % NG
	2	 0.0	 0.0	 3	   0.001000	  17.213000	 816.000000; % NG
	2	 0.0	 0.0	 3	   0.001000	  17.213000	 816.000000; % COW
	2	 0.0	 0.0	 3	   0.001000	  17.213000	 816.000000; % COW
	2	 0.0	 0.0	 3	   0.001000	  17.350000	 858.490000; % NG
	2	 0.0	 0.0	 3	   0.001000	  17.350000	 858.490000; % NG
	2	 0.0	 0.0	 3	   0.001000	  17.350000	 858.490000; % NG
	2	 0.0	 0.0	 3	   0.001000	  16.743000	 670.500000; % NG
	2	 0.0	 0.0	 3	   0.002000	  29.085000	 864.490000; % COW
	2	 0.0	 0.0	 3	   0.002000	  29.085000	 864.490000; % NG
	2	 0.0	 0.0	 3	   0.002000	  29.085000	 864.490000; % NG
	2	 0.0	 0.0	 3	   0.001000	  17.694000	 965.100000; % COW
	2	 0.0	 0.0	 3	   0.001000	  17.694000	 965.100000; % NG
	2	 0.0	 0.0	 3	   0.001000	  17.694000	 965.100000; % NG
	2	 0.0	 0.0	 3	   0.001000	  18.220000	 1128.000000; % COW
	2	 0.0	 0.0	 3	   0.002000	  17.172000	 236.040000; % PEL
	2	 0.0	 0.0	 3	   0.002000	  17.172000	 236.630000; % COW
	2	 0.0	 0.0	 3	   0.002000	  17.172000	 236.200000; % PEL
	2	 0.0	 0.0	 3	   0.002000	  17.172000	 236.750000; % NG
	2	 0.0	 0.0	 3	   0.002000	  17.172000	 236.750000; % NG
	2	 0.0	 0.0	 3	   0.002000	  17.172000	 236.750000; % PEL
	2	 0.0	 0.0	 3	   0.002000	  17.172000	 236.750000; % NG
	2	 0.0	 0.0	 3	   0.002000	  17.172000	 236.750000; % PEL
	2	 0.0	 0.0	 3	   0.002000	  17.172000	 236.750000; % COW
	2	 0.0	 0.0	 3	   0.000000	   0.000000	   0.000000; % NG
	2	 0.0	 0.0	 3	   0.002000	  28.724000	 797.700000; % NG
	2	 0.0	 0.0	 3	   0.002000	  28.724000	 797.700000; % NG
	2	 0.0	 0.0	 3	   0.002000	  27.928000	 650.400000; % NG
	2	 0.0	 0.0	 3	   0.002000	  27.928000	 650.400000; % PEL
	2	 0.0	 0.0	 3	   0.002000	  27.928000	 650.400000; % NG
	2	 0.0	 0.0	 3	   0.002000	  27.928000	 650.400000; % COW
	2	 0.0	 0.0	 3	   0.002000	  28.200000	 700.800000; % NG
	2	 0.0	 0.0	 3	   0.002000	  28.190000	 699.000000; % NG
	2	 0.0	 0.0	 3	   0.000000	   0.000000	   0.000000; % NG
	2	 0.0	 0.0	 3	   0.000000	   0.000000	   0.000000; % NG
	2	 0.0	 0.0	 3	   0.001000	  17.473000	 896.660000; % COW
	2	 0.0	 0.0	 3	   0.001000	  17.473000	 896.660000; % NG
	2	 0.0	 0.0	 3	   0.001000	  17.473000	 896.660000; % NG
	2	 0.0	 0.0	 3	   0.001000	  16.559000	 613.500000; % NG
	2	 0.0	 0.0	 3	   0.000000	   0.000000	   0.000000; % NG
	2	 0.0	 0.0	 3	   0.000000	   0.000000	   0.000000; % NG
	2	 0.0	 0.0	 3	   0.000000	   0.000000	   0.000000; % NG
	2	 0.0	 0.0	 3	   0.000000	   0.000000	   0.000000; % NG
	2	 0.0	 0.0	 3	   0.001000	  16.879000	 712.500000; % PEL
	2	 0.0	 0.0	 3	   0.001000	  17.405000	 875.660000; % NG
	2	 0.0	 0.0	 3	   0.001000	  16.632000	 636.000000; % PEL
	2	 0.0	 0.0	 3	   0.001000	  16.811000	 691.500000; % NG
	2	 0.0	 0.0	 3	   0.001000	  16.566000	 615.600000; % PEL
	2	 0.0	 0.0	 3	   0.001000	  17.808000	 1000.500000; % NG
	2	 0.0	 0.0	 3	   0.001000	  17.808000	 1000.500000; % NG
	2	 0.0	 0.0	 3	   0.001000	  17.808000	 1000.500000; % NG
	2	 0.0	 0.0	 3	   0.001000	  17.405000	 875.660000; % NG
	2	 0.0	 0.0	 3	   0.001000	  17.405000	 875.660000; % NG
	2	 0.0	 0.0	 3	   0.000000	   0.000000	   0.000000; % NG
	2	 0.0	 0.0	 3	   0.000000	   0.000000	   0.000000; % PEL
	2	 0.0	 0.0	 3	   0.000000	   0.000000	   0.000000; % PEL
	2	 0.0	 0.0	 3	   0.001000	  15.962000	 607.200000; % NG
	2	 0.0	 0.0	 3	   0.001000	  15.177000	 606.300000; % NG
	2	 0.0	 0.0	 3	   0.001000	  15.186000	 609.600000; % PEL
	2	 0.0	 0.0	 3	   0.001000	  16.529000	 1062.700000; % COW
	2	 0.0	 0.0	 3	   0.001000	  16.529000	 1062.700000; % NG
	2	 0.0	 0.0	 3	   0.001000	  16.529000	 1062.700000; % NG
	2	 0.0	 0.0	 3	   0.001000	  16.529000	 1062.700000; % COW
	2	 0.0	 0.0	 3	   0.001000	  16.529000	 1062.700000; % NG
	2	 0.0	 0.0	 3	   0.001000	  16.529000	 1062.700000; % NG
	2	 0.0	 0.0	 3	   0.001000	  16.996000	 727.050000; % NG
	2	 0.0	 0.0	 3	   0.001000	  17.435000	 1076.030000; % COW
	2	 0.0	 0.0	 3	   0.001000	  17.422000	 1076.030000; % NG
	2	 0.0	 0.0	 3	   0.001000	  15.989000	 615.900000; % COW
	2	 0.0	 0.0	 3	   0.001000	  15.948000	 602.700000; % NG
	2	 0.0	 0.0	 3	   0.001000	  17.987000	 1223.610000; % NG
	2	 0.0	 0.0	 3	   0.001000	  17.987000	 1223.610000; % NG
	2	 0.0	 0.0	 3	   0.001000	  17.987000	 1223.610000; % NG
	2	 0.0	 0.0	 3	   0.000000	   0.000000	   0.000000; % NG
...
];

%% branch data
%	fbus	tbus	r	x	b	rateA	rateB	rateC	ratio	angle	status	angmin	angmax
mpc.branch = [
	1001	 1064	 0.00524	 0.0358	 0.00609	 221.0	 221.0	 221.0	 0.0	 0.0	 1	 -30.0	 30.0;
	1001	 1064	 0.00524	 0.0358	 0.00609	 221.0	 221.0	 221.0	 0.0	 0.0	 1	 -30.0	 30.0;
	1001	 1071	 0.00435	 0.02808	 0.00536	 221.0	 221.0	 221.0	 0.0	 0.0	 1	 -30.0	 30.0;
	1001	 1071	 0.00435	 0.02808	 0.00536	 221.0	 221.0	 221.0	 0.0	 0.0	 1	 -30.0	 30.0;
	1002	 1007	 0.07776	 0.46693	 0.06336	 98.0	 98.0	 98.0	 0.0	 0.0	 1	 -30.0	 30.0;
	1010	 1002	 0.05552	 0.1357	 0.01777	 98.0	 98.0	 98.0	 0.0	 0.0	 1	 -30.0	 30.0;
	1004	 1003	 0.0045	 0.11582	 0.0	 250.0	 250.0	 250.0	 1.0	 0.0	 1	 -30.0	 30.0;
	1022	 1003	 0.00485	 0.02012	 0.00341	 221.0	 221.0	 221.0	 0.0	 0.0	 1	 -30.0	 30.0;
	1055	 1003	 0.01574	 0.03782	 0.00513	 98.0	 98.0	 98.0	 0.0	 0.0	 1	 -30.0	 30.0;
	1004	 3133	 0.0042	 0.03	 0.055	 523.0	 523.0	 523.0	 0.0	 0.0	 1	 -30.0	 30.0;
	1006	 1005	 0.00602	 0.14707	 0.0	 42.0	 42.0	 42.0	 1.0	 0.0	 1	 -30.0	 30.0;
	1025	 1005	 0.01842	 0.0821	 0.01204	 149.0	 149.0	 149.0	 0.0	 0.0	 1	 -30.0	 30.0;
	1005	 1061	 0.00599	 0.02484	 0.00422	 221.0	 221.0	 221.0	 0.0	 0.0	 1	 -30.0	 30.0;
	1067	 1005	 0.01711	 0.04181	 0.00548	 98.0	 98.0	 98.0	 0.0	 0.0	 1	 -30.0	 30.0;
	1007	 1015	 0.06224	 0.37375	 0.05072	 98.0	 98.0	 98.0	 0.0	 0.0	 1	 -30.0	 30.0;
	1031	 1007	 0.04803	 0.27434	 0.04123	 98.0	 98.0	 98.0	 0.0	 0.0	 1	 -30.0	 30.0;
	1009	 1008	 0.00455	 0.09471	 0.0	 120.0	 120.0	 120.0	 1.0	 0.0	 1	 -30.0	 30.0;
	1008	 1032	 0.04501	 0.11002	 0.01441	 98.0	 98.0	 98.0	 0.0	 0.0	 1	 -30.0	 30.0;
	1008	 1069	 0.0083	 0.03628	 0.00553	 149.0	 149.0	 149.0	 0.0	 0.0	 1	 -30.0	 30.0;
	1011	 1010	 0.00721	 0.3246	 0.0	 46.0	 46.0	 46.0	 1.0	 0.0	 1	 -30.0	 30.0;
	1010	 1015	 0.04703	 0.28243	 0.03833	 98.0	 98.0	 98.0	 0.0	 0.0	 1	 -30.0	 30.0;
	1010	 1030	 0.0616	 0.3699	 0.0502	 98.0	 98.0	 98.0	 0.0	 0.0	 1	 -30.0	 30.0;
	1012	 1087	 0.04934	 0.20469	 0.03473	 149.0	 149.0	 149.0	 0.0	 0.0	 1	 -30.0	 30.0;
	3051	 1012	 0.0571	 0.24977	 0.03804	 149.0	 149.0	 149.0	 0.0	 0.0	 1	 -30.0	 30.0;
	1013	 1031	 0.04509	 0.27078	 0.03675	 98.0	 98.0	 98.0	 0.0	 0.0	 1	 -30.0	 30.0;
	1047	 1013	 0.00947	 0.06117	 0.01167	 221.0	 221.0	 221.0	 0.0	 0.0	 1	 -30.0	 30.0;
	1086	 1013	 0.079	 0.19311	 0.02529	 98.0	 98.0	 98.0	 0.0	 0.0	 1	 -30.0	 30.0;
	1014	 1047	 0.03566	 0.14794	 0.0251	 149.0	 149.0	 149.0	 0.0	 0.0	 1	 -30.0	 30.0;
	1014	 1083	 0.04105	 0.18293	 0.02682	 149.0	 149.0	 149.0	 0.0	 0.0	 1	 -30.0	 30.0;
	1016	 1034	 0.01828	 0.10976	 0.01489	 98.0	 98.0	 98.0	 0.0	 0.0	 1	 -30.0	 30.0;
	1068	 1016	 0.02773	 0.15837	 0.0238	 98.0	 98.0	 98.0	 0.0	 0.0	 1	 -30.0	 30.0;
	1018	 1017	 0.03227	 0.07887	 0.01033	 98.0	 98.0	 98.0	 0.0	 0.0	 1	 -30.0	 30.0;
	1017	 1029	 0.03244	 0.14188	 0.02161	 149.0	 149.0	 149.0	 0.0	 0.0	 1	 -30.0	 30.0;
	1037	 1017	 0.00752	 0.03352	 0.00491	 221.0	 221.0	 221.0	 0.0	 0.0	 1	 -30.0	 30.0;
	1047	 1017	 0.036	 0.156	 0.024	 150.0	 150.0	 150.0	 0.0	 0.0	 1	 -30.0	 30.0;
	1024	 1018	 0.01094	 0.06572	 0.00892	 98.0	 98.0	 98.0	 0.0	 0.0	 1	 -30.0	 30.0;
	1019	 1040	 0.04978	 0.20651	 0.03504	 149.0	 149.0	 149.0	 0.0	 0.0	 1	 -30.0	 30.0;
	1019	 1045	 0.01522	 0.0372	 0.00487	 221.0	 221.0	 221.0	 0.0	 0.0	 1	 -30.0	 30.0;
	1019	 1071	 0.0044	 0.028	 0.0054	 225.0	 225.0	 225.0	 0.0	 0.0	 1	 -30.0	 30.0;
	1071	 1019	 0.0044	 0.028	 0.0054	 225.0	 225.0	 225.0	 0.0	 0.0	 1	 -30.0	 30.0;
	1019	 1084	 0.03	 0.16	 0.025	 220.0	 220.0	 220.0	 0.0	 0.0	 1	 -30.0	 30.0;
	1021	 1020	 0.00327	 0.07812	 0.0	 250.0	 250.0	 250.0	 1.0	 0.0	 1	 -30.0	 30.0;
	1025	 1020	 0.00828	 0.03434	 0.00583	 149.0	 149.0	 149.0	 0.0	 0.0	 1	 -30.0	 30.0;
	1084	 1020	 0.01056	 0.06337	 0.0086	 221.0	 221.0	 221.0	 0.0	 0.0	 1	 -30.0	 30.0;
	1020	 3059	 0.0189	 0.06	 0.006	 300.0	 300.0	 300.0	 0.0	 0.0	 1	 -30.0	 30.0;
	1020	 3130	 0.00996	 0.06938	 0.01134	 221.0	 221.0	 221.0	 0.0	 0.0	 1	 -30.0	 30.0;
	1023	 1022	 0.00535	 0.11733	 0.0	 250.0	 250.0	 250.0	 1.0	 0.0	 1	 -30.0	 30.0;
...